Circuit: * C:\Users\abhir\Desktop\dd\work_folder\Error_Analyzer - Copy.asc

WARNING: Node X4:X1:N001 is floating.
WARNING: Node X4:X1:N002 is floating.
WARNING: Node X4:X1:N004 is floating.
WARNING: Node X4:X2:N001 is floating.
WARNING: Node X4:X2:N002 is floating.
WARNING: Node X5:X1:N001 is floating.
WARNING: Node X5:X1:N002 is floating.
WARNING: Node X5:X1:N004 is floating.
WARNING: Node X5:X2:N001 is floating.
WARNING: Node X5:X2:N002 is floating.
WARNING: Node X6:X1:N001 is floating.
WARNING: Node X6:X1:N002 is floating.
WARNING: Node X6:X1:N004 is floating.
WARNING: Node X6:X2:N001 is floating.
WARNING: Node X6:X2:N002 is floating.
WARNING: Node X7:X1:N001 is floating.
WARNING: Node X7:X1:N002 is floating.
WARNING: Node X7:X1:N004 is floating.
WARNING: Node X7:X2:N001 is floating.
WARNING: Node X7:X2:N002 is floating.
WARNING: Node X18:X1:N001 is floating.
WARNING: Node X18:X1:N002 is floating.
WARNING: Node X18:X1:N004 is floating.
WARNING: Node X18:X2:N001 is floating.
WARNING: Node X18:X2:N002 is floating.
WARNING: Node X19:X1:N001 is floating.
WARNING: Node X19:X1:N002 is floating.
WARNING: Node X19:X1:N004 is floating.
WARNING: Node X19:X2:N001 is floating.
WARNING: Node X19:X2:N002 is floating.
WARNING: Node X20:X2:N001 is floating.
WARNING: Node X20:X2:N002 is floating.
WARNING: Node X20:X1:N004 is floating.
WARNING: Node X20:X1:N001 is floating.
WARNING: Node X20:X1:N003 is floating.
WARNING: Node X21:X2:N001 is floating.
WARNING: Node X21:X2:N002 is floating.
WARNING: Node X21:X1:N004 is floating.
WARNING: Node X21:X1:N001 is floating.
WARNING: Node X21:X1:N003 is floating.
WARNING: Node X34:N001 is floating.
WARNING: Node X34:N002 is floating.
WARNING: Node X35:N001 is floating.
WARNING: Node X35:N002 is floating.
WARNING: Node X36:N001 is floating.
WARNING: Node X36:N002 is floating.
WARNING: Node X37:N001 is floating.
WARNING: Node X37:N002 is floating.
WARNING: Node X38:X1:N001 is floating.
WARNING: Node X38:X1:N002 is floating.
WARNING: Node X38:X1:N004 is floating.
WARNING: Node X38:X2:N001 is floating.
WARNING: Node X38:X2:N002 is floating.
WARNING: Node X39:X1:N001 is floating.
WARNING: Node X39:X1:N002 is floating.
WARNING: Node X39:X1:N004 is floating.
WARNING: Node X39:X2:N001 is floating.
WARNING: Node X39:X2:N002 is floating.
WARNING: Node X42:X2:N001 is floating.
WARNING: Node X42:X2:N002 is floating.
WARNING: Node X42:X1:N004 is floating.
WARNING: Node X42:X1:N001 is floating.
WARNING: Node X42:X1:N003 is floating.
WARNING: Node X40:X1:N001 is floating.
WARNING: Node X40:X1:N002 is floating.
WARNING: Node X40:X1:N004 is floating.
WARNING: Node X40:X2:N001 is floating.
WARNING: Node X40:X2:N002 is floating.
WARNING: Node X41:X1:N001 is floating.
WARNING: Node X41:X1:N002 is floating.
WARNING: Node X41:X1:N004 is floating.
WARNING: Node X41:X2:N001 is floating.
WARNING: Node X41:X2:N002 is floating.
WARNING: Node X44:X1:N001 is floating.
WARNING: Node X44:X1:N002 is floating.
WARNING: Node X44:X1:N004 is floating.
WARNING: Node X44:X2:N001 is floating.
WARNING: Node X44:X2:N002 is floating.
WARNING: Node X43:X2:N001 is floating.
WARNING: Node X43:X2:N002 is floating.
WARNING: Node X43:X1:N004 is floating.
WARNING: Node X43:X1:N001 is floating.
WARNING: Node X43:X1:N003 is floating.
WARNING: Node X17:X1:N001 is floating.
WARNING: Node X17:X1:N002 is floating.
WARNING: Node X17:X1:N004 is floating.
WARNING: Node X17:X2:N001 is floating.
WARNING: Node X17:X2:N002 is floating.
WARNING: Node X45:X1:N001 is floating.
WARNING: Node X45:X1:N002 is floating.
WARNING: Node X45:X1:N004 is floating.
WARNING: Node X45:X2:N001 is floating.
WARNING: Node X45:X2:N002 is floating.
WARNING: Node X46:X1:N001 is floating.
WARNING: Node X46:X1:N002 is floating.
WARNING: Node X46:X1:N004 is floating.
WARNING: Node X46:X2:N001 is floating.
WARNING: Node X46:X2:N002 is floating.
WARNING: Node X3:X1:N001 is floating.
WARNING: Node X3:X1:N002 is floating.
WARNING: Node X3:X1:N004 is floating.
WARNING: Node X3:X2:N001 is floating.
WARNING: Node X3:X2:N002 is floating.
WARNING: Node X1:X2:N001 is floating.
WARNING: Node X1:X2:N002 is floating.
WARNING: Node X1:X1:N004 is floating.
WARNING: Node X1:X1:N001 is floating.
WARNING: Node X1:X1:N003 is floating.
WARNING: Node X9:X2:N001 is floating.
WARNING: Node X9:X2:N002 is floating.
WARNING: Node X9:X1:N004 is floating.
WARNING: Node X9:X1:N001 is floating.
WARNING: Node X9:X1:N003 is floating.
WARNING: Node X10:X2:N001 is floating.
WARNING: Node X10:X2:N002 is floating.
WARNING: Node X10:X1:N004 is floating.
WARNING: Node X10:X1:N001 is floating.
WARNING: Node X10:X1:N003 is floating.
WARNING: Node X8:X2:N001 is floating.
WARNING: Node X8:X2:N002 is floating.
WARNING: Node X8:X1:N004 is floating.
WARNING: Node X8:X1:N001 is floating.
WARNING: Node X8:X1:N003 is floating.
WARNING: Node X11:N001 is floating.
WARNING: Node X11:N002 is floating.
WARNING: Node X12:X3:N001 is floating.
WARNING: Node X12:X3:N002 is floating.
WARNING: Node X12:X3:N004 is floating.
WARNING: Node X12:X1:N001 is floating.
WARNING: Node X12:X1:N002 is floating.
WARNING: Node X12:X1:N004 is floating.
WARNING: Node X12:X2:N001 is floating.
WARNING: Node X12:X2:N002 is floating.
WARNING: Node X12:X2:N004 is floating.
WARNING: Node X12:X4:N001 is floating.
WARNING: Node X12:X4:N002 is floating.
WARNING: Node X12:X4:N004 is floating.
WARNING: Node X12:X5:N001 is floating.
WARNING: Node X12:X5:N002 is floating.
WARNING: Node X16:N004 is floating.
WARNING: Node X16:N001 is floating.
WARNING: Node X16:N003 is floating.
WARNING: Node X22:N001 is floating.
WARNING: Node X22:N002 is floating.
WARNING: Node X2:X2:N001 is floating.
WARNING: Node X2:X2:N002 is floating.
WARNING: Node X2:X1:N004 is floating.
WARNING: Node X2:X1:N001 is floating.
WARNING: Node X2:X1:N003 is floating.

Instance "m:x4:x1:2": Length shorter than recommended for a level 1 MOSFET.
Instance "m:x4:x1:2": Width narrower than recommended for a level 1 MOSFET.
Instance "m:x4:x1:3": Length shorter than recommended for a level 1 MOSFET.
Instance "m:x4:x1:3": Width narrower than recommended for a level 1 MOSFET.
Instance "m:x4:x1:1": Length shorter than recommended for a level 1 MOSFET.
Instance "m:x4:x1:1": Width narrower than recommended for a level 1 MOSFET.
Instance "m:x4:x1:4": Length shorter than recommended for a level 1 MOSFET.
Instance "m:x4:x1:4": Width narrower than recommended for a level 1 MOSFET.
Instance "m:x4:x2:2": Length shorter than recommended for a level 1 MOSFET.
Instance "m:x4:x2:2": Width narrower than recommended for a level 1 MOSFET.
Instance "m:x4:x2:1": Length shorter than recommended for a level 1 MOSFET.
Instance "m:x4:x2:1": Width narrower than recommended for a level 1 MOSFET.
Instance "m:x5:x1:2": Length shorter than recommended for a level 1 MOSFET.
Instance "m:x5:x1:2": Width narrower than recommended for a level 1 MOSFET.
Instance "m:x5:x1:3": Length shorter than recommended for a level 1 MOSFET.
Instance "m:x5:x1:3": Width narrower than recommended for a level 1 MOSFET.
Instance "m:x5:x1:1": Length shorter than recommended for a level 1 MOSFET.
Instance "m:x5:x1:1": Width narrower than recommended for a level 1 MOSFET.
Instance "m:x5:x1:4": Length shorter than recommended for a level 1 MOSFET.
Instance "m:x5:x1:4": Width narrower than recommended for a level 1 MOSFET.
Instance "m:x5:x2:2": Length shorter than recommended for a level 1 MOSFET.
Instance "m:x5:x2:2": Width narrower than recommended for a level 1 MOSFET.
Instance "m:x5:x2:1": Length shorter than recommended for a level 1 MOSFET.
Instance "m:x5:x2:1": Width narrower than recommended for a level 1 MOSFET.
Instance "m:x6:x1:2": Length shorter than recommended for a level 1 MOSFET.
Instance "m:x6:x1:2": Width narrower than recommended for a level 1 MOSFET.
Instance "m:x6:x1:3": Length shorter than recommended for a level 1 MOSFET.
Instance "m:x6:x1:3": Width narrower than recommended for a level 1 MOSFET.
Instance "m:x6:x1:1": Length shorter than recommended for a level 1 MOSFET.
Instance "m:x6:x1:1": Width narrower than recommended for a level 1 MOSFET.
Instance "m:x6:x1:4": Length shorter than recommended for a level 1 MOSFET.
Instance "m:x6:x1:4": Width narrower than recommended for a level 1 MOSFET.
Instance "m:x6:x2:2": Length shorter than recommended for a level 1 MOSFET.
Instance "m:x6:x2:2": Width narrower than recommended for a level 1 MOSFET.
Instance "m:x6:x2:1": Length shorter than recommended for a level 1 MOSFET.
Instance "m:x6:x2:1": Width narrower than recommended for a level 1 MOSFET.
Instance "m:x7:x1:2": Length shorter than recommended for a level 1 MOSFET.
Instance "m:x7:x1:2": Width narrower than recommended for a level 1 MOSFET.
Instance "m:x7:x1:3": Length shorter than recommended for a level 1 MOSFET.
Instance "m:x7:x1:3": Width narrower than recommended for a level 1 MOSFET.
Instance "m:x7:x1:1": Length shorter than recommended for a level 1 MOSFET.
Instance "m:x7:x1:1": Width narrower than recommended for a level 1 MOSFET.
Instance "m:x7:x1:4": Length shorter than recommended for a level 1 MOSFET.
Instance "m:x7:x1:4": Width narrower than recommended for a level 1 MOSFET.
Instance "m:x7:x2:2": Length shorter than recommended for a level 1 MOSFET.
Instance "m:x7:x2:2": Width narrower than recommended for a level 1 MOSFET.
Instance "m:x7:x2:1": Length shorter than recommended for a level 1 MOSFET.
Instance "m:x7:x2:1": Width narrower than recommended for a level 1 MOSFET.
Instance "m:x18:x1:2": Length shorter than recommended for a level 1 MOSFET.
Instance "m:x18:x1:2": Width narrower than recommended for a level 1 MOSFET.
Instance "m:x18:x1:3": Length shorter than recommended for a level 1 MOSFET.
Instance "m:x18:x1:3": Width narrower than recommended for a level 1 MOSFET.
Instance "m:x18:x1:1": Length shorter than recommended for a level 1 MOSFET.
Instance "m:x18:x1:1": Width narrower than recommended for a level 1 MOSFET.
Instance "m:x18:x1:4": Length shorter than recommended for a level 1 MOSFET.
Instance "m:x18:x1:4": Width narrower than recommended for a level 1 MOSFET.
Instance "m:x18:x2:2": Length shorter than recommended for a level 1 MOSFET.
Instance "m:x18:x2:2": Width narrower than recommended for a level 1 MOSFET.
Instance "m:x18:x2:1": Length shorter than recommended for a level 1 MOSFET.
Instance "m:x18:x2:1": Width narrower than recommended for a level 1 MOSFET.
Instance "m:x19:x1:2": Length shorter than recommended for a level 1 MOSFET.
Instance "m:x19:x1:2": Width narrower than recommended for a level 1 MOSFET.
Instance "m:x19:x1:3": Length shorter than recommended for a level 1 MOSFET.
Instance "m:x19:x1:3": Width narrower than recommended for a level 1 MOSFET.
Instance "m:x19:x1:1": Length shorter than recommended for a level 1 MOSFET.
Instance "m:x19:x1:1": Width narrower than recommended for a level 1 MOSFET.
Instance "m:x19:x1:4": Length shorter than recommended for a level 1 MOSFET.
Instance "m:x19:x1:4": Width narrower than recommended for a level 1 MOSFET.
Instance "m:x19:x2:2": Length shorter than recommended for a level 1 MOSFET.
Instance "m:x19:x2:2": Width narrower than recommended for a level 1 MOSFET.
Instance "m:x19:x2:1": Length shorter than recommended for a level 1 MOSFET.
Instance "m:x19:x2:1": Width narrower than recommended for a level 1 MOSFET.
Instance "m:x20:x2:2": Length shorter than recommended for a level 1 MOSFET.
Instance "m:x20:x2:2": Width narrower than recommended for a level 1 MOSFET.
Instance "m:x20:x2:1": Length shorter than recommended for a level 1 MOSFET.
Instance "m:x20:x2:1": Width narrower than recommended for a level 1 MOSFET.
Instance "m:x20:x1:4": Length shorter than recommended for a level 1 MOSFET.
Instance "m:x20:x1:4": Width narrower than recommended for a level 1 MOSFET.
Instance "m:x20:x1:7": Length shorter than recommended for a level 1 MOSFET.
Instance "m:x20:x1:7": Width narrower than recommended for a level 1 MOSFET.
Instance "m:x20:x1:5": Length shorter than recommended for a level 1 MOSFET.
Instance "m:x20:x1:5": Width narrower than recommended for a level 1 MOSFET.
Instance "m:x20:x1:6": Length shorter than recommended for a level 1 MOSFET.
Instance "m:x20:x1:6": Width narrower than recommended for a level 1 MOSFET.
Instance "m:x21:x2:2": Length shorter than recommended for a level 1 MOSFET.
Instance "m:x21:x2:2": Width narrower than recommended for a level 1 MOSFET.
Instance "m:x21:x2:1": Length shorter than recommended for a level 1 MOSFET.
Instance "m:x21:x2:1": Width narrower than recommended for a level 1 MOSFET.
Instance "m:x21:x1:4": Length shorter than recommended for a level 1 MOSFET.
Instance "m:x21:x1:4": Width narrower than recommended for a level 1 MOSFET.
Instance "m:x21:x1:7": Length shorter than recommended for a level 1 MOSFET.
Instance "m:x21:x1:7": Width narrower than recommended for a level 1 MOSFET.
Instance "m:x21:x1:5": Length shorter than recommended for a level 1 MOSFET.
Instance "m:x21:x1:5": Width narrower than recommended for a level 1 MOSFET.
Instance "m:x21:x1:6": Length shorter than recommended for a level 1 MOSFET.
Instance "m:x21:x1:6": Width narrower than recommended for a level 1 MOSFET.
Instance "m:x34:2": Length shorter than recommended for a level 1 MOSFET.
Instance "m:x34:2": Width narrower than recommended for a level 1 MOSFET.
Instance "m:x34:1": Length shorter than recommended for a level 1 MOSFET.
Instance "m:x34:1": Width narrower than recommended for a level 1 MOSFET.
Instance "m:x35:2": Length shorter than recommended for a level 1 MOSFET.
Instance "m:x35:2": Width narrower than recommended for a level 1 MOSFET.
Instance "m:x35:1": Length shorter than recommended for a level 1 MOSFET.
Instance "m:x35:1": Width narrower than recommended for a level 1 MOSFET.
Instance "m:x36:2": Length shorter than recommended for a level 1 MOSFET.
Instance "m:x36:2": Width narrower than recommended for a level 1 MOSFET.
Instance "m:x36:1": Length shorter than recommended for a level 1 MOSFET.
Instance "m:x36:1": Width narrower than recommended for a level 1 MOSFET.
Instance "m:x37:2": Length shorter than recommended for a level 1 MOSFET.
Instance "m:x37:2": Width narrower than recommended for a level 1 MOSFET.
Instance "m:x37:1": Length shorter than recommended for a level 1 MOSFET.
Instance "m:x37:1": Width narrower than recommended for a level 1 MOSFET.
Instance "m:x38:x1:2": Length shorter than recommended for a level 1 MOSFET.
Instance "m:x38:x1:2": Width narrower than recommended for a level 1 MOSFET.
Instance "m:x38:x1:3": Length shorter than recommended for a level 1 MOSFET.
Instance "m:x38:x1:3": Width narrower than recommended for a level 1 MOSFET.
Instance "m:x38:x1:1": Length shorter than recommended for a level 1 MOSFET.
Instance "m:x38:x1:1": Width narrower than recommended for a level 1 MOSFET.
Instance "m:x38:x1:4": Length shorter than recommended for a level 1 MOSFET.
Instance "m:x38:x1:4": Width narrower than recommended for a level 1 MOSFET.
Instance "m:x38:x2:2": Length shorter than recommended for a level 1 MOSFET.
Instance "m:x38:x2:2": Width narrower than recommended for a level 1 MOSFET.
Instance "m:x38:x2:1": Length shorter than recommended for a level 1 MOSFET.
Instance "m:x38:x2:1": Width narrower than recommended for a level 1 MOSFET.
Instance "m:x39:x1:2": Length shorter than recommended for a level 1 MOSFET.
Instance "m:x39:x1:2": Width narrower than recommended for a level 1 MOSFET.
Instance "m:x39:x1:3": Length shorter than recommended for a level 1 MOSFET.
Instance "m:x39:x1:3": Width narrower than recommended for a level 1 MOSFET.
Instance "m:x39:x1:1": Length shorter than recommended for a level 1 MOSFET.
Instance "m:x39:x1:1": Width narrower than recommended for a level 1 MOSFET.
Instance "m:x39:x1:4": Length shorter than recommended for a level 1 MOSFET.
Instance "m:x39:x1:4": Width narrower than recommended for a level 1 MOSFET.
Instance "m:x39:x2:2": Length shorter than recommended for a level 1 MOSFET.
Instance "m:x39:x2:2": Width narrower than recommended for a level 1 MOSFET.
Instance "m:x39:x2:1": Length shorter than recommended for a level 1 MOSFET.
Instance "m:x39:x2:1": Width narrower than recommended for a level 1 MOSFET.
Instance "m:x42:x2:2": Length shorter than recommended for a level 1 MOSFET.
Instance "m:x42:x2:2": Width narrower than recommended for a level 1 MOSFET.
Instance "m:x42:x2:1": Length shorter than recommended for a level 1 MOSFET.
Instance "m:x42:x2:1": Width narrower than recommended for a level 1 MOSFET.
Instance "m:x42:x1:4": Length shorter than recommended for a level 1 MOSFET.
Instance "m:x42:x1:4": Width narrower than recommended for a level 1 MOSFET.
Instance "m:x42:x1:7": Length shorter than recommended for a level 1 MOSFET.
Instance "m:x42:x1:7": Width narrower than recommended for a level 1 MOSFET.
Instance "m:x42:x1:5": Length shorter than recommended for a level 1 MOSFET.
Instance "m:x42:x1:5": Width narrower than recommended for a level 1 MOSFET.
Instance "m:x42:x1:6": Length shorter than recommended for a level 1 MOSFET.
Instance "m:x42:x1:6": Width narrower than recommended for a level 1 MOSFET.
Instance "m:x40:x1:2": Length shorter than recommended for a level 1 MOSFET.
Instance "m:x40:x1:2": Width narrower than recommended for a level 1 MOSFET.
Instance "m:x40:x1:3": Length shorter than recommended for a level 1 MOSFET.
Instance "m:x40:x1:3": Width narrower than recommended for a level 1 MOSFET.
Instance "m:x40:x1:1": Length shorter than recommended for a level 1 MOSFET.
Instance "m:x40:x1:1": Width narrower than recommended for a level 1 MOSFET.
Instance "m:x40:x1:4": Length shorter than recommended for a level 1 MOSFET.
Instance "m:x40:x1:4": Width narrower than recommended for a level 1 MOSFET.
Instance "m:x40:x2:2": Length shorter than recommended for a level 1 MOSFET.
Instance "m:x40:x2:2": Width narrower than recommended for a level 1 MOSFET.
Instance "m:x40:x2:1": Length shorter than recommended for a level 1 MOSFET.
Instance "m:x40:x2:1": Width narrower than recommended for a level 1 MOSFET.
Instance "m:x41:x1:2": Length shorter than recommended for a level 1 MOSFET.
Instance "m:x41:x1:2": Width narrower than recommended for a level 1 MOSFET.
Instance "m:x41:x1:3": Length shorter than recommended for a level 1 MOSFET.
Instance "m:x41:x1:3": Width narrower than recommended for a level 1 MOSFET.
Instance "m:x41:x1:1": Length shorter than recommended for a level 1 MOSFET.
Instance "m:x41:x1:1": Width narrower than recommended for a level 1 MOSFET.
Instance "m:x41:x1:4": Length shorter than recommended for a level 1 MOSFET.
Instance "m:x41:x1:4": Width narrower than recommended for a level 1 MOSFET.
Instance "m:x41:x2:2": Length shorter than recommended for a level 1 MOSFET.
Instance "m:x41:x2:2": Width narrower than recommended for a level 1 MOSFET.
Instance "m:x41:x2:1": Length shorter than recommended for a level 1 MOSFET.
Instance "m:x41:x2:1": Width narrower than recommended for a level 1 MOSFET.
Instance "m:x44:x1:2": Length shorter than recommended for a level 1 MOSFET.
Instance "m:x44:x1:2": Width narrower than recommended for a level 1 MOSFET.
Instance "m:x44:x1:3": Length shorter than recommended for a level 1 MOSFET.
Instance "m:x44:x1:3": Width narrower than recommended for a level 1 MOSFET.
Instance "m:x44:x1:1": Length shorter than recommended for a level 1 MOSFET.
Instance "m:x44:x1:1": Width narrower than recommended for a level 1 MOSFET.
Instance "m:x44:x1:4": Length shorter than recommended for a level 1 MOSFET.
Instance "m:x44:x1:4": Width narrower than recommended for a level 1 MOSFET.
Instance "m:x44:x2:2": Length shorter than recommended for a level 1 MOSFET.
Instance "m:x44:x2:2": Width narrower than recommended for a level 1 MOSFET.
Instance "m:x44:x2:1": Length shorter than recommended for a level 1 MOSFET.
Instance "m:x44:x2:1": Width narrower than recommended for a level 1 MOSFET.
Instance "m:x43:x2:2": Length shorter than recommended for a level 1 MOSFET.
Instance "m:x43:x2:2": Width narrower than recommended for a level 1 MOSFET.
Instance "m:x43:x2:1": Length shorter than recommended for a level 1 MOSFET.
Instance "m:x43:x2:1": Width narrower than recommended for a level 1 MOSFET.
Instance "m:x43:x1:4": Length shorter than recommended for a level 1 MOSFET.
Instance "m:x43:x1:4": Width narrower than recommended for a level 1 MOSFET.
Instance "m:x43:x1:7": Length shorter than recommended for a level 1 MOSFET.
Instance "m:x43:x1:7": Width narrower than recommended for a level 1 MOSFET.
Instance "m:x43:x1:5": Length shorter than recommended for a level 1 MOSFET.
Instance "m:x43:x1:5": Width narrower than recommended for a level 1 MOSFET.
Instance "m:x43:x1:6": Length shorter than recommended for a level 1 MOSFET.
Instance "m:x43:x1:6": Width narrower than recommended for a level 1 MOSFET.
Instance "m:x17:x1:2": Length shorter than recommended for a level 1 MOSFET.
Instance "m:x17:x1:2": Width narrower than recommended for a level 1 MOSFET.
Instance "m:x17:x1:3": Length shorter than recommended for a level 1 MOSFET.
Instance "m:x17:x1:3": Width narrower than recommended for a level 1 MOSFET.
Instance "m:x17:x1:1": Length shorter than recommended for a level 1 MOSFET.
Instance "m:x17:x1:1": Width narrower than recommended for a level 1 MOSFET.
Instance "m:x17:x1:4": Length shorter than recommended for a level 1 MOSFET.
Instance "m:x17:x1:4": Width narrower than recommended for a level 1 MOSFET.
Instance "m:x17:x2:2": Length shorter than recommended for a level 1 MOSFET.
Instance "m:x17:x2:2": Width narrower than recommended for a level 1 MOSFET.
Instance "m:x17:x2:1": Length shorter than recommended for a level 1 MOSFET.
Instance "m:x17:x2:1": Width narrower than recommended for a level 1 MOSFET.
Instance "m:x45:x1:2": Length shorter than recommended for a level 1 MOSFET.
Instance "m:x45:x1:2": Width narrower than recommended for a level 1 MOSFET.
Instance "m:x45:x1:3": Length shorter than recommended for a level 1 MOSFET.
Instance "m:x45:x1:3": Width narrower than recommended for a level 1 MOSFET.
Instance "m:x45:x1:1": Length shorter than recommended for a level 1 MOSFET.
Instance "m:x45:x1:1": Width narrower than recommended for a level 1 MOSFET.
Instance "m:x45:x1:4": Length shorter than recommended for a level 1 MOSFET.
Instance "m:x45:x1:4": Width narrower than recommended for a level 1 MOSFET.
Instance "m:x45:x2:2": Length shorter than recommended for a level 1 MOSFET.
Instance "m:x45:x2:2": Width narrower than recommended for a level 1 MOSFET.
Instance "m:x45:x2:1": Length shorter than recommended for a level 1 MOSFET.
Instance "m:x45:x2:1": Width narrower than recommended for a level 1 MOSFET.
Instance "m:x46:x1:2": Length shorter than recommended for a level 1 MOSFET.
Instance "m:x46:x1:2": Width narrower than recommended for a level 1 MOSFET.
Instance "m:x46:x1:3": Length shorter than recommended for a level 1 MOSFET.
Instance "m:x46:x1:3": Width narrower than recommended for a level 1 MOSFET.
Instance "m:x46:x1:1": Length shorter than recommended for a level 1 MOSFET.
Instance "m:x46:x1:1": Width narrower than recommended for a level 1 MOSFET.
Instance "m:x46:x1:4": Length shorter than recommended for a level 1 MOSFET.
Instance "m:x46:x1:4": Width narrower than recommended for a level 1 MOSFET.
Instance "m:x46:x2:2": Length shorter than recommended for a level 1 MOSFET.
Instance "m:x46:x2:2": Width narrower than recommended for a level 1 MOSFET.
Instance "m:x46:x2:1": Length shorter than recommended for a level 1 MOSFET.
Instance "m:x46:x2:1": Width narrower than recommended for a level 1 MOSFET.
Instance "m:x3:x1:2": Length shorter than recommended for a level 1 MOSFET.
Instance "m:x3:x1:2": Width narrower than recommended for a level 1 MOSFET.
Instance "m:x3:x1:3": Length shorter than recommended for a level 1 MOSFET.
Instance "m:x3:x1:3": Width narrower than recommended for a level 1 MOSFET.
Instance "m:x3:x1:1": Length shorter than recommended for a level 1 MOSFET.
Instance "m:x3:x1:1": Width narrower than recommended for a level 1 MOSFET.
Instance "m:x3:x1:4": Length shorter than recommended for a level 1 MOSFET.
Instance "m:x3:x1:4": Width narrower than recommended for a level 1 MOSFET.
Instance "m:x3:x2:2": Length shorter than recommended for a level 1 MOSFET.
Instance "m:x3:x2:2": Width narrower than recommended for a level 1 MOSFET.
Instance "m:x3:x2:1": Length shorter than recommended for a level 1 MOSFET.
Instance "m:x3:x2:1": Width narrower than recommended for a level 1 MOSFET.
Instance "m:x1:x2:2": Length shorter than recommended for a level 1 MOSFET.
Instance "m:x1:x2:2": Width narrower than recommended for a level 1 MOSFET.
Instance "m:x1:x2:1": Length shorter than recommended for a level 1 MOSFET.
Instance "m:x1:x2:1": Width narrower than recommended for a level 1 MOSFET.
Instance "m:x1:x1:4": Length shorter than recommended for a level 1 MOSFET.
Instance "m:x1:x1:4": Width narrower than recommended for a level 1 MOSFET.
Instance "m:x1:x1:7": Length shorter than recommended for a level 1 MOSFET.
Instance "m:x1:x1:7": Width narrower than recommended for a level 1 MOSFET.
Instance "m:x1:x1:5": Length shorter than recommended for a level 1 MOSFET.
Instance "m:x1:x1:5": Width narrower than recommended for a level 1 MOSFET.
Instance "m:x1:x1:6": Length shorter than recommended for a level 1 MOSFET.
Instance "m:x1:x1:6": Width narrower than recommended for a level 1 MOSFET.
Instance "m:x9:x2:2": Length shorter than recommended for a level 1 MOSFET.
Instance "m:x9:x2:2": Width narrower than recommended for a level 1 MOSFET.
Instance "m:x9:x2:1": Length shorter than recommended for a level 1 MOSFET.
Instance "m:x9:x2:1": Width narrower than recommended for a level 1 MOSFET.
Instance "m:x9:x1:4": Length shorter than recommended for a level 1 MOSFET.
Instance "m:x9:x1:4": Width narrower than recommended for a level 1 MOSFET.
Instance "m:x9:x1:7": Length shorter than recommended for a level 1 MOSFET.
Instance "m:x9:x1:7": Width narrower than recommended for a level 1 MOSFET.
Instance "m:x9:x1:5": Length shorter than recommended for a level 1 MOSFET.
Instance "m:x9:x1:5": Width narrower than recommended for a level 1 MOSFET.
Instance "m:x9:x1:6": Length shorter than recommended for a level 1 MOSFET.
Instance "m:x9:x1:6": Width narrower than recommended for a level 1 MOSFET.
Instance "m:x10:x2:2": Length shorter than recommended for a level 1 MOSFET.
Instance "m:x10:x2:2": Width narrower than recommended for a level 1 MOSFET.
Instance "m:x10:x2:1": Length shorter than recommended for a level 1 MOSFET.
Instance "m:x10:x2:1": Width narrower than recommended for a level 1 MOSFET.
Instance "m:x10:x1:4": Length shorter than recommended for a level 1 MOSFET.
Instance "m:x10:x1:4": Width narrower than recommended for a level 1 MOSFET.
Instance "m:x10:x1:7": Length shorter than recommended for a level 1 MOSFET.
Instance "m:x10:x1:7": Width narrower than recommended for a level 1 MOSFET.
Instance "m:x10:x1:5": Length shorter than recommended for a level 1 MOSFET.
Instance "m:x10:x1:5": Width narrower than recommended for a level 1 MOSFET.
Instance "m:x10:x1:6": Length shorter than recommended for a level 1 MOSFET.
Instance "m:x10:x1:6": Width narrower than recommended for a level 1 MOSFET.
Instance "m:x8:x2:2": Length shorter than recommended for a level 1 MOSFET.
Instance "m:x8:x2:2": Width narrower than recommended for a level 1 MOSFET.
Instance "m:x8:x2:1": Length shorter than recommended for a level 1 MOSFET.
Instance "m:x8:x2:1": Width narrower than recommended for a level 1 MOSFET.
Instance "m:x8:x1:4": Length shorter than recommended for a level 1 MOSFET.
Instance "m:x8:x1:4": Width narrower than recommended for a level 1 MOSFET.
Instance "m:x8:x1:7": Length shorter than recommended for a level 1 MOSFET.
Instance "m:x8:x1:7": Width narrower than recommended for a level 1 MOSFET.
Instance "m:x8:x1:5": Length shorter than recommended for a level 1 MOSFET.
Instance "m:x8:x1:5": Width narrower than recommended for a level 1 MOSFET.
Instance "m:x8:x1:6": Length shorter than recommended for a level 1 MOSFET.
Instance "m:x8:x1:6": Width narrower than recommended for a level 1 MOSFET.
Instance "m:x11:2": Length shorter than recommended for a level 1 MOSFET.
Instance "m:x11:2": Width narrower than recommended for a level 1 MOSFET.
Instance "m:x11:1": Length shorter than recommended for a level 1 MOSFET.
Instance "m:x11:1": Width narrower than recommended for a level 1 MOSFET.
Instance "m:x12:x3:2": Length shorter than recommended for a level 1 MOSFET.
Instance "m:x12:x3:2": Width narrower than recommended for a level 1 MOSFET.
Instance "m:x12:x3:3": Length shorter than recommended for a level 1 MOSFET.
Instance "m:x12:x3:3": Width narrower than recommended for a level 1 MOSFET.
Instance "m:x12:x3:1": Length shorter than recommended for a level 1 MOSFET.
Instance "m:x12:x3:1": Width narrower than recommended for a level 1 MOSFET.
Instance "m:x12:x3:4": Length shorter than recommended for a level 1 MOSFET.
Instance "m:x12:x3:4": Width narrower than recommended for a level 1 MOSFET.
Instance "m:x12:x1:2": Length shorter than recommended for a level 1 MOSFET.
Instance "m:x12:x1:2": Width narrower than recommended for a level 1 MOSFET.
Instance "m:x12:x1:3": Length shorter than recommended for a level 1 MOSFET.
Instance "m:x12:x1:3": Width narrower than recommended for a level 1 MOSFET.
Instance "m:x12:x1:1": Length shorter than recommended for a level 1 MOSFET.
Instance "m:x12:x1:1": Width narrower than recommended for a level 1 MOSFET.
Instance "m:x12:x1:4": Length shorter than recommended for a level 1 MOSFET.
Instance "m:x12:x1:4": Width narrower than recommended for a level 1 MOSFET.
Instance "m:x12:x2:2": Length shorter than recommended for a level 1 MOSFET.
Instance "m:x12:x2:2": Width narrower than recommended for a level 1 MOSFET.
Instance "m:x12:x2:3": Length shorter than recommended for a level 1 MOSFET.
Instance "m:x12:x2:3": Width narrower than recommended for a level 1 MOSFET.
Instance "m:x12:x2:1": Length shorter than recommended for a level 1 MOSFET.
Instance "m:x12:x2:1": Width narrower than recommended for a level 1 MOSFET.
Instance "m:x12:x2:4": Length shorter than recommended for a level 1 MOSFET.
Instance "m:x12:x2:4": Width narrower than recommended for a level 1 MOSFET.
Instance "m:x12:x4:2": Length shorter than recommended for a level 1 MOSFET.
Instance "m:x12:x4:2": Width narrower than recommended for a level 1 MOSFET.
Instance "m:x12:x4:3": Length shorter than recommended for a level 1 MOSFET.
Instance "m:x12:x4:3": Width narrower than recommended for a level 1 MOSFET.
Instance "m:x12:x4:1": Length shorter than recommended for a level 1 MOSFET.
Instance "m:x12:x4:1": Width narrower than recommended for a level 1 MOSFET.
Instance "m:x12:x4:4": Length shorter than recommended for a level 1 MOSFET.
Instance "m:x12:x4:4": Width narrower than recommended for a level 1 MOSFET.
Instance "m:x12:x5:2": Length shorter than recommended for a level 1 MOSFET.
Instance "m:x12:x5:2": Width narrower than recommended for a level 1 MOSFET.
Instance "m:x12:x5:1": Length shorter than recommended for a level 1 MOSFET.
Instance "m:x12:x5:1": Width narrower than recommended for a level 1 MOSFET.
Instance "m:x16:4": Length shorter than recommended for a level 1 MOSFET.
Instance "m:x16:4": Width narrower than recommended for a level 1 MOSFET.
Instance "m:x16:7": Length shorter than recommended for a level 1 MOSFET.
Instance "m:x16:7": Width narrower than recommended for a level 1 MOSFET.
Instance "m:x16:5": Length shorter than recommended for a level 1 MOSFET.
Instance "m:x16:5": Width narrower than recommended for a level 1 MOSFET.
Instance "m:x16:6": Length shorter than recommended for a level 1 MOSFET.
Instance "m:x16:6": Width narrower than recommended for a level 1 MOSFET.
Instance "m:x22:2": Length shorter than recommended for a level 1 MOSFET.
Instance "m:x22:2": Width narrower than recommended for a level 1 MOSFET.
Instance "m:x22:1": Length shorter than recommended for a level 1 MOSFET.
Instance "m:x22:1": Width narrower than recommended for a level 1 MOSFET.
Instance "m:x2:x2:2": Length shorter than recommended for a level 1 MOSFET.
Instance "m:x2:x2:2": Width narrower than recommended for a level 1 MOSFET.
Instance "m:x2:x2:1": Length shorter than recommended for a level 1 MOSFET.
Instance "m:x2:x2:1": Width narrower than recommended for a level 1 MOSFET.
Instance "m:x2:x1:4": Length shorter than recommended for a level 1 MOSFET.
Instance "m:x2:x1:4": Width narrower than recommended for a level 1 MOSFET.
Instance "m:x2:x1:7": Length shorter than recommended for a level 1 MOSFET.
Instance "m:x2:x1:7": Width narrower than recommended for a level 1 MOSFET.
Instance "m:x2:x1:5": Length shorter than recommended for a level 1 MOSFET.
Instance "m:x2:x1:5": Width narrower than recommended for a level 1 MOSFET.
Instance "m:x2:x1:6": Length shorter than recommended for a level 1 MOSFET.
Instance "m:x2:x1:6": Width narrower than recommended for a level 1 MOSFET.
Direct Newton iteration failed to find .op point.  (Use ".option noopiter" to skip.)
Starting Gmin stepping
Gmin = 10
Gmin = 1.07374
Gmin = 0.115292
Gmin = 0.0123794
Gmin = 0.00132923
Gmin = 0.000142725
Gmin = 1.5325e-05
Gmin = 1.6455e-06
Gmin = 1.76685e-07
Gmin = 1.89714e-08
Gmin = 2.03704e-09
Gmin = 2.18725e-10
Gmin = 2.34854e-11
Gmin = 2.52173e-12
Gmin = 2.70769e-13
Gmin = 0
Gmin stepping succeeded in finding the operating point.


Date: Sat Oct 21 12:17:06 2023
Total elapsed time: 0.517 seconds.

tnom = 27
temp = 27
method = modified trap
totiter = 2590
traniter = 2082
tranpoints = 1042
accept = 1042
rejected = 0
matrix size = 297
fillins = 96
solver = Normal
Avg thread counts: 6.5/4.9/4.9/2.9
Matrix Compiler1: 44.73 KB object code size  6.9/4.0/[1.7]
Matrix Compiler2: 36.39 KB object code size  4.5/4.8/[2.4]

