Circuit: * C:\Users\abhir\Desktop\dd\work_folder\testbench-dmux.asc

WARNING: Node X1:X1:N001 is floating.
WARNING: Node X1:X1:N002 is floating.
WARNING: Node X1:X2:N001 is floating.
WARNING: Node X1:X2:N002 is floating.
WARNING: Node X1:X3:N001 is floating.
WARNING: Node X1:X3:N002 is floating.
WARNING: Node X1:X4:X1:N001 is floating.
WARNING: Node X1:X4:X1:N002 is floating.
WARNING: Node X1:X4:X1:N004 is floating.
WARNING: Node X1:X4:X2:N001 is floating.
WARNING: Node X1:X4:X2:N002 is floating.
WARNING: Node X1:X5:X1:N001 is floating.
WARNING: Node X1:X5:X1:N002 is floating.
WARNING: Node X1:X5:X1:N004 is floating.
WARNING: Node X1:X5:X2:N001 is floating.
WARNING: Node X1:X5:X2:N002 is floating.
WARNING: Node X1:X6:X1:N001 is floating.
WARNING: Node X1:X6:X1:N002 is floating.
WARNING: Node X1:X6:X1:N004 is floating.
WARNING: Node X1:X6:X2:N001 is floating.
WARNING: Node X1:X6:X2:N002 is floating.
WARNING: Node X1:X7:X2:N001 is floating.
WARNING: Node X1:X7:X2:N002 is floating.
WARNING: Node X1:X7:X1:N004 is floating.
WARNING: Node X1:X7:X1:N001 is floating.
WARNING: Node X1:X7:X1:N003 is floating.
WARNING: Node X1:X8:X2:N001 is floating.
WARNING: Node X1:X8:X2:N002 is floating.
WARNING: Node X1:X8:X1:N004 is floating.
WARNING: Node X1:X8:X1:N001 is floating.
WARNING: Node X1:X8:X1:N003 is floating.

Instance "m:x1:x1:2": Length shorter than recommended for a level 1 MOSFET.
Instance "m:x1:x1:2": Width narrower than recommended for a level 1 MOSFET.
Instance "m:x1:x1:1": Length shorter than recommended for a level 1 MOSFET.
Instance "m:x1:x1:1": Width narrower than recommended for a level 1 MOSFET.
Instance "m:x1:x2:2": Length shorter than recommended for a level 1 MOSFET.
Instance "m:x1:x2:2": Width narrower than recommended for a level 1 MOSFET.
Instance "m:x1:x2:1": Length shorter than recommended for a level 1 MOSFET.
Instance "m:x1:x2:1": Width narrower than recommended for a level 1 MOSFET.
Instance "m:x1:x3:2": Length shorter than recommended for a level 1 MOSFET.
Instance "m:x1:x3:2": Width narrower than recommended for a level 1 MOSFET.
Instance "m:x1:x3:1": Length shorter than recommended for a level 1 MOSFET.
Instance "m:x1:x3:1": Width narrower than recommended for a level 1 MOSFET.
Instance "m:x1:x4:x1:2": Length shorter than recommended for a level 1 MOSFET.
Instance "m:x1:x4:x1:2": Width narrower than recommended for a level 1 MOSFET.
Instance "m:x1:x4:x1:3": Length shorter than recommended for a level 1 MOSFET.
Instance "m:x1:x4:x1:3": Width narrower than recommended for a level 1 MOSFET.
Instance "m:x1:x4:x1:1": Length shorter than recommended for a level 1 MOSFET.
Instance "m:x1:x4:x1:1": Width narrower than recommended for a level 1 MOSFET.
Instance "m:x1:x4:x1:4": Length shorter than recommended for a level 1 MOSFET.
Instance "m:x1:x4:x1:4": Width narrower than recommended for a level 1 MOSFET.
Instance "m:x1:x4:x2:2": Length shorter than recommended for a level 1 MOSFET.
Instance "m:x1:x4:x2:2": Width narrower than recommended for a level 1 MOSFET.
Instance "m:x1:x4:x2:1": Length shorter than recommended for a level 1 MOSFET.
Instance "m:x1:x4:x2:1": Width narrower than recommended for a level 1 MOSFET.
Instance "m:x1:x5:x1:2": Length shorter than recommended for a level 1 MOSFET.
Instance "m:x1:x5:x1:2": Width narrower than recommended for a level 1 MOSFET.
Instance "m:x1:x5:x1:3": Length shorter than recommended for a level 1 MOSFET.
Instance "m:x1:x5:x1:3": Width narrower than recommended for a level 1 MOSFET.
Instance "m:x1:x5:x1:1": Length shorter than recommended for a level 1 MOSFET.
Instance "m:x1:x5:x1:1": Width narrower than recommended for a level 1 MOSFET.
Instance "m:x1:x5:x1:4": Length shorter than recommended for a level 1 MOSFET.
Instance "m:x1:x5:x1:4": Width narrower than recommended for a level 1 MOSFET.
Instance "m:x1:x5:x2:2": Length shorter than recommended for a level 1 MOSFET.
Instance "m:x1:x5:x2:2": Width narrower than recommended for a level 1 MOSFET.
Instance "m:x1:x5:x2:1": Length shorter than recommended for a level 1 MOSFET.
Instance "m:x1:x5:x2:1": Width narrower than recommended for a level 1 MOSFET.
Instance "m:x1:x6:x1:2": Length shorter than recommended for a level 1 MOSFET.
Instance "m:x1:x6:x1:2": Width narrower than recommended for a level 1 MOSFET.
Instance "m:x1:x6:x1:3": Length shorter than recommended for a level 1 MOSFET.
Instance "m:x1:x6:x1:3": Width narrower than recommended for a level 1 MOSFET.
Instance "m:x1:x6:x1:1": Length shorter than recommended for a level 1 MOSFET.
Instance "m:x1:x6:x1:1": Width narrower than recommended for a level 1 MOSFET.
Instance "m:x1:x6:x1:4": Length shorter than recommended for a level 1 MOSFET.
Instance "m:x1:x6:x1:4": Width narrower than recommended for a level 1 MOSFET.
Instance "m:x1:x6:x2:2": Length shorter than recommended for a level 1 MOSFET.
Instance "m:x1:x6:x2:2": Width narrower than recommended for a level 1 MOSFET.
Instance "m:x1:x6:x2:1": Length shorter than recommended for a level 1 MOSFET.
Instance "m:x1:x6:x2:1": Width narrower than recommended for a level 1 MOSFET.
Instance "m:x1:x7:x2:2": Length shorter than recommended for a level 1 MOSFET.
Instance "m:x1:x7:x2:2": Width narrower than recommended for a level 1 MOSFET.
Instance "m:x1:x7:x2:1": Length shorter than recommended for a level 1 MOSFET.
Instance "m:x1:x7:x2:1": Width narrower than recommended for a level 1 MOSFET.
Instance "m:x1:x7:x1:4": Length shorter than recommended for a level 1 MOSFET.
Instance "m:x1:x7:x1:4": Width narrower than recommended for a level 1 MOSFET.
Instance "m:x1:x7:x1:7": Length shorter than recommended for a level 1 MOSFET.
Instance "m:x1:x7:x1:7": Width narrower than recommended for a level 1 MOSFET.
Instance "m:x1:x7:x1:5": Length shorter than recommended for a level 1 MOSFET.
Instance "m:x1:x7:x1:5": Width narrower than recommended for a level 1 MOSFET.
Instance "m:x1:x7:x1:6": Length shorter than recommended for a level 1 MOSFET.
Instance "m:x1:x7:x1:6": Width narrower than recommended for a level 1 MOSFET.
Instance "m:x1:x8:x2:2": Length shorter than recommended for a level 1 MOSFET.
Instance "m:x1:x8:x2:2": Width narrower than recommended for a level 1 MOSFET.
Instance "m:x1:x8:x2:1": Length shorter than recommended for a level 1 MOSFET.
Instance "m:x1:x8:x2:1": Width narrower than recommended for a level 1 MOSFET.
Instance "m:x1:x8:x1:4": Length shorter than recommended for a level 1 MOSFET.
Instance "m:x1:x8:x1:4": Width narrower than recommended for a level 1 MOSFET.
Instance "m:x1:x8:x1:7": Length shorter than recommended for a level 1 MOSFET.
Instance "m:x1:x8:x1:7": Width narrower than recommended for a level 1 MOSFET.
Instance "m:x1:x8:x1:5": Length shorter than recommended for a level 1 MOSFET.
Instance "m:x1:x8:x1:5": Width narrower than recommended for a level 1 MOSFET.
Instance "m:x1:x8:x1:6": Length shorter than recommended for a level 1 MOSFET.
Instance "m:x1:x8:x1:6": Width narrower than recommended for a level 1 MOSFET.
Direct Newton iteration failed to find .op point.  (Use ".option noopiter" to skip.)
Starting Gmin stepping
Gmin = 10
Gmin = 1.07374
Gmin = 0.115292
Gmin = 0.0123794
Gmin = 0.00132923
Gmin = 0.000142725
Gmin = 1.5325e-05
Gmin = 1.6455e-06
Gmin = 1.76685e-07
Gmin = 1.89714e-08
Gmin = 2.03704e-09
Gmin = 2.18725e-10
Gmin = 2.34854e-11
Gmin = 2.52173e-12
Gmin = 2.70769e-13
Gmin = 0
Gmin stepping succeeded in finding the operating point.


Date: Wed Oct 18 21:56:42 2023
Total elapsed time: 0.111 seconds.

tnom = 27
temp = 27
method = modified trap
totiter = 2513
traniter = 2082
tranpoints = 1042
accept = 1042
rejected = 0
matrix size = 59
fillins = 0
solver = Normal
Avg thread counts: 2.9/4.9/4.9/2.9
Matrix Compiler1: 5.68 KB object code size  0.8/0.5/[0.2]
Matrix Compiler2: 6.64 KB object code size  0.7/0.8/[0.3]

