Circuit: * C:\Users\kuria\OneDrive - iiit-b\Courses-IIITB-General\Course-DigitalDesign\Moodle-Questions\Midterm-Lab-Exam\work_folder\testbench-MUX.asc

WARNING: Node X1:X3:X1:N001 is floating.
WARNING: Node X1:X3:X1:N002 is floating.
WARNING: Node X1:X3:X1:N004 is floating.
WARNING: Node X1:X3:X2:N001 is floating.
WARNING: Node X1:X3:X2:N002 is floating.
WARNING: Node X1:X4:X1:N001 is floating.
WARNING: Node X1:X4:X1:N002 is floating.
WARNING: Node X1:X4:X1:N004 is floating.
WARNING: Node X1:X4:X2:N001 is floating.
WARNING: Node X1:X4:X2:N002 is floating.
WARNING: Node X1:X5:N001 is floating.
WARNING: Node X1:X5:N002 is floating.
WARNING: Node X1:X6:N001 is floating.
WARNING: Node X1:X6:N002 is floating.
WARNING: Node X1:X1:X1:N001 is floating.
WARNING: Node X1:X1:X1:N002 is floating.
WARNING: Node X1:X1:X1:N004 is floating.
WARNING: Node X1:X1:X2:N001 is floating.
WARNING: Node X1:X1:X2:N002 is floating.
WARNING: Node X1:X2:X1:N001 is floating.
WARNING: Node X1:X2:X1:N002 is floating.
WARNING: Node X1:X2:X1:N004 is floating.
WARNING: Node X1:X2:X2:N001 is floating.
WARNING: Node X1:X2:X2:N002 is floating.
WARNING: Node X1:X8:N001 is floating.
WARNING: Node X1:X8:N002 is floating.
WARNING: Node X1:X7:X1:N001 is floating.
WARNING: Node X1:X7:X1:N002 is floating.
WARNING: Node X1:X7:X1:N004 is floating.
WARNING: Node X1:X7:X2:N001 is floating.
WARNING: Node X1:X7:X2:N002 is floating.
WARNING: Node X1:X9:X1:N001 is floating.
WARNING: Node X1:X9:X1:N002 is floating.
WARNING: Node X1:X9:X1:N004 is floating.
WARNING: Node X1:X9:X2:N001 is floating.
WARNING: Node X1:X9:X2:N002 is floating.
WARNING: Node X1:X10:N001 is floating.
WARNING: Node X1:X10:N002 is floating.
WARNING: Node X1:X11:X1:N001 is floating.
WARNING: Node X1:X11:X1:N002 is floating.
WARNING: Node X1:X11:X1:N004 is floating.
WARNING: Node X1:X11:X2:N001 is floating.
WARNING: Node X1:X11:X2:N002 is floating.
WARNING: Node X1:X12:X1:N001 is floating.
WARNING: Node X1:X12:X1:N002 is floating.
WARNING: Node X1:X12:X1:N004 is floating.
WARNING: Node X1:X12:X2:N001 is floating.
WARNING: Node X1:X12:X2:N002 is floating.
WARNING: Node X1:X13:X2:N001 is floating.
WARNING: Node X1:X13:X2:N002 is floating.
WARNING: Node X1:X13:X1:N004 is floating.
WARNING: Node X1:X13:X1:N001 is floating.
WARNING: Node X1:X13:X1:N003 is floating.
WARNING: Node X1:X14:X2:N001 is floating.
WARNING: Node X1:X14:X2:N002 is floating.
WARNING: Node X1:X14:X1:N004 is floating.
WARNING: Node X1:X14:X1:N001 is floating.
WARNING: Node X1:X14:X1:N003 is floating.
WARNING: Node X1:X15:X2:N001 is floating.
WARNING: Node X1:X15:X2:N002 is floating.
WARNING: Node X1:X15:X1:N004 is floating.
WARNING: Node X1:X15:X1:N001 is floating.
WARNING: Node X1:X15:X1:N003 is floating.

Instance "m:x1:x3:x1:2": Length shorter than recommended for a level 1 MOSFET.
Instance "m:x1:x3:x1:2": Width narrower than recommended for a level 1 MOSFET.
Instance "m:x1:x3:x1:3": Length shorter than recommended for a level 1 MOSFET.
Instance "m:x1:x3:x1:3": Width narrower than recommended for a level 1 MOSFET.
Instance "m:x1:x3:x1:1": Length shorter than recommended for a level 1 MOSFET.
Instance "m:x1:x3:x1:1": Width narrower than recommended for a level 1 MOSFET.
Instance "m:x1:x3:x1:4": Length shorter than recommended for a level 1 MOSFET.
Instance "m:x1:x3:x1:4": Width narrower than recommended for a level 1 MOSFET.
Instance "m:x1:x3:x2:2": Length shorter than recommended for a level 1 MOSFET.
Instance "m:x1:x3:x2:2": Width narrower than recommended for a level 1 MOSFET.
Instance "m:x1:x3:x2:1": Length shorter than recommended for a level 1 MOSFET.
Instance "m:x1:x3:x2:1": Width narrower than recommended for a level 1 MOSFET.
Instance "m:x1:x4:x1:2": Length shorter than recommended for a level 1 MOSFET.
Instance "m:x1:x4:x1:2": Width narrower than recommended for a level 1 MOSFET.
Instance "m:x1:x4:x1:3": Length shorter than recommended for a level 1 MOSFET.
Instance "m:x1:x4:x1:3": Width narrower than recommended for a level 1 MOSFET.
Instance "m:x1:x4:x1:1": Length shorter than recommended for a level 1 MOSFET.
Instance "m:x1:x4:x1:1": Width narrower than recommended for a level 1 MOSFET.
Instance "m:x1:x4:x1:4": Length shorter than recommended for a level 1 MOSFET.
Instance "m:x1:x4:x1:4": Width narrower than recommended for a level 1 MOSFET.
Instance "m:x1:x4:x2:2": Length shorter than recommended for a level 1 MOSFET.
Instance "m:x1:x4:x2:2": Width narrower than recommended for a level 1 MOSFET.
Instance "m:x1:x4:x2:1": Length shorter than recommended for a level 1 MOSFET.
Instance "m:x1:x4:x2:1": Width narrower than recommended for a level 1 MOSFET.
Instance "m:x1:x5:2": Length shorter than recommended for a level 1 MOSFET.
Instance "m:x1:x5:2": Width narrower than recommended for a level 1 MOSFET.
Instance "m:x1:x5:1": Length shorter than recommended for a level 1 MOSFET.
Instance "m:x1:x5:1": Width narrower than recommended for a level 1 MOSFET.
Instance "m:x1:x6:2": Length shorter than recommended for a level 1 MOSFET.
Instance "m:x1:x6:2": Width narrower than recommended for a level 1 MOSFET.
Instance "m:x1:x6:1": Length shorter than recommended for a level 1 MOSFET.
Instance "m:x1:x6:1": Width narrower than recommended for a level 1 MOSFET.
Instance "m:x1:x1:x1:2": Length shorter than recommended for a level 1 MOSFET.
Instance "m:x1:x1:x1:2": Width narrower than recommended for a level 1 MOSFET.
Instance "m:x1:x1:x1:3": Length shorter than recommended for a level 1 MOSFET.
Instance "m:x1:x1:x1:3": Width narrower than recommended for a level 1 MOSFET.
Instance "m:x1:x1:x1:1": Length shorter than recommended for a level 1 MOSFET.
Instance "m:x1:x1:x1:1": Width narrower than recommended for a level 1 MOSFET.
Instance "m:x1:x1:x1:4": Length shorter than recommended for a level 1 MOSFET.
Instance "m:x1:x1:x1:4": Width narrower than recommended for a level 1 MOSFET.
Instance "m:x1:x1:x2:2": Length shorter than recommended for a level 1 MOSFET.
Instance "m:x1:x1:x2:2": Width narrower than recommended for a level 1 MOSFET.
Instance "m:x1:x1:x2:1": Length shorter than recommended for a level 1 MOSFET.
Instance "m:x1:x1:x2:1": Width narrower than recommended for a level 1 MOSFET.
Instance "m:x1:x2:x1:2": Length shorter than recommended for a level 1 MOSFET.
Instance "m:x1:x2:x1:2": Width narrower than recommended for a level 1 MOSFET.
Instance "m:x1:x2:x1:3": Length shorter than recommended for a level 1 MOSFET.
Instance "m:x1:x2:x1:3": Width narrower than recommended for a level 1 MOSFET.
Instance "m:x1:x2:x1:1": Length shorter than recommended for a level 1 MOSFET.
Instance "m:x1:x2:x1:1": Width narrower than recommended for a level 1 MOSFET.
Instance "m:x1:x2:x1:4": Length shorter than recommended for a level 1 MOSFET.
Instance "m:x1:x2:x1:4": Width narrower than recommended for a level 1 MOSFET.
Instance "m:x1:x2:x2:2": Length shorter than recommended for a level 1 MOSFET.
Instance "m:x1:x2:x2:2": Width narrower than recommended for a level 1 MOSFET.
Instance "m:x1:x2:x2:1": Length shorter than recommended for a level 1 MOSFET.
Instance "m:x1:x2:x2:1": Width narrower than recommended for a level 1 MOSFET.
Instance "m:x1:x8:2": Length shorter than recommended for a level 1 MOSFET.
Instance "m:x1:x8:2": Width narrower than recommended for a level 1 MOSFET.
Instance "m:x1:x8:1": Length shorter than recommended for a level 1 MOSFET.
Instance "m:x1:x8:1": Width narrower than recommended for a level 1 MOSFET.
Instance "m:x1:x7:x1:2": Length shorter than recommended for a level 1 MOSFET.
Instance "m:x1:x7:x1:2": Width narrower than recommended for a level 1 MOSFET.
Instance "m:x1:x7:x1:3": Length shorter than recommended for a level 1 MOSFET.
Instance "m:x1:x7:x1:3": Width narrower than recommended for a level 1 MOSFET.
Instance "m:x1:x7:x1:1": Length shorter than recommended for a level 1 MOSFET.
Instance "m:x1:x7:x1:1": Width narrower than recommended for a level 1 MOSFET.
Instance "m:x1:x7:x1:4": Length shorter than recommended for a level 1 MOSFET.
Instance "m:x1:x7:x1:4": Width narrower than recommended for a level 1 MOSFET.
Instance "m:x1:x7:x2:2": Length shorter than recommended for a level 1 MOSFET.
Instance "m:x1:x7:x2:2": Width narrower than recommended for a level 1 MOSFET.
Instance "m:x1:x7:x2:1": Length shorter than recommended for a level 1 MOSFET.
Instance "m:x1:x7:x2:1": Width narrower than recommended for a level 1 MOSFET.
Instance "m:x1:x9:x1:2": Length shorter than recommended for a level 1 MOSFET.
Instance "m:x1:x9:x1:2": Width narrower than recommended for a level 1 MOSFET.
Instance "m:x1:x9:x1:3": Length shorter than recommended for a level 1 MOSFET.
Instance "m:x1:x9:x1:3": Width narrower than recommended for a level 1 MOSFET.
Instance "m:x1:x9:x1:1": Length shorter than recommended for a level 1 MOSFET.
Instance "m:x1:x9:x1:1": Width narrower than recommended for a level 1 MOSFET.
Instance "m:x1:x9:x1:4": Length shorter than recommended for a level 1 MOSFET.
Instance "m:x1:x9:x1:4": Width narrower than recommended for a level 1 MOSFET.
Instance "m:x1:x9:x2:2": Length shorter than recommended for a level 1 MOSFET.
Instance "m:x1:x9:x2:2": Width narrower than recommended for a level 1 MOSFET.
Instance "m:x1:x9:x2:1": Length shorter than recommended for a level 1 MOSFET.
Instance "m:x1:x9:x2:1": Width narrower than recommended for a level 1 MOSFET.
Instance "m:x1:x10:2": Length shorter than recommended for a level 1 MOSFET.
Instance "m:x1:x10:2": Width narrower than recommended for a level 1 MOSFET.
Instance "m:x1:x10:1": Length shorter than recommended for a level 1 MOSFET.
Instance "m:x1:x10:1": Width narrower than recommended for a level 1 MOSFET.
Instance "m:x1:x11:x1:2": Length shorter than recommended for a level 1 MOSFET.
Instance "m:x1:x11:x1:2": Width narrower than recommended for a level 1 MOSFET.
Instance "m:x1:x11:x1:3": Length shorter than recommended for a level 1 MOSFET.
Instance "m:x1:x11:x1:3": Width narrower than recommended for a level 1 MOSFET.
Instance "m:x1:x11:x1:1": Length shorter than recommended for a level 1 MOSFET.
Instance "m:x1:x11:x1:1": Width narrower than recommended for a level 1 MOSFET.
Instance "m:x1:x11:x1:4": Length shorter than recommended for a level 1 MOSFET.
Instance "m:x1:x11:x1:4": Width narrower than recommended for a level 1 MOSFET.
Instance "m:x1:x11:x2:2": Length shorter than recommended for a level 1 MOSFET.
Instance "m:x1:x11:x2:2": Width narrower than recommended for a level 1 MOSFET.
Instance "m:x1:x11:x2:1": Length shorter than recommended for a level 1 MOSFET.
Instance "m:x1:x11:x2:1": Width narrower than recommended for a level 1 MOSFET.
Instance "m:x1:x12:x1:2": Length shorter than recommended for a level 1 MOSFET.
Instance "m:x1:x12:x1:2": Width narrower than recommended for a level 1 MOSFET.
Instance "m:x1:x12:x1:3": Length shorter than recommended for a level 1 MOSFET.
Instance "m:x1:x12:x1:3": Width narrower than recommended for a level 1 MOSFET.
Instance "m:x1:x12:x1:1": Length shorter than recommended for a level 1 MOSFET.
Instance "m:x1:x12:x1:1": Width narrower than recommended for a level 1 MOSFET.
Instance "m:x1:x12:x1:4": Length shorter than recommended for a level 1 MOSFET.
Instance "m:x1:x12:x1:4": Width narrower than recommended for a level 1 MOSFET.
Instance "m:x1:x12:x2:2": Length shorter than recommended for a level 1 MOSFET.
Instance "m:x1:x12:x2:2": Width narrower than recommended for a level 1 MOSFET.
Instance "m:x1:x12:x2:1": Length shorter than recommended for a level 1 MOSFET.
Instance "m:x1:x12:x2:1": Width narrower than recommended for a level 1 MOSFET.
Instance "m:x1:x13:x2:2": Length shorter than recommended for a level 1 MOSFET.
Instance "m:x1:x13:x2:2": Width narrower than recommended for a level 1 MOSFET.
Instance "m:x1:x13:x2:1": Length shorter than recommended for a level 1 MOSFET.
Instance "m:x1:x13:x2:1": Width narrower than recommended for a level 1 MOSFET.
Instance "m:x1:x13:x1:4": Length shorter than recommended for a level 1 MOSFET.
Instance "m:x1:x13:x1:4": Width narrower than recommended for a level 1 MOSFET.
Instance "m:x1:x13:x1:7": Length shorter than recommended for a level 1 MOSFET.
Instance "m:x1:x13:x1:7": Width narrower than recommended for a level 1 MOSFET.
Instance "m:x1:x13:x1:5": Length shorter than recommended for a level 1 MOSFET.
Instance "m:x1:x13:x1:5": Width narrower than recommended for a level 1 MOSFET.
Instance "m:x1:x13:x1:6": Length shorter than recommended for a level 1 MOSFET.
Instance "m:x1:x13:x1:6": Width narrower than recommended for a level 1 MOSFET.
Instance "m:x1:x14:x2:2": Length shorter than recommended for a level 1 MOSFET.
Instance "m:x1:x14:x2:2": Width narrower than recommended for a level 1 MOSFET.
Instance "m:x1:x14:x2:1": Length shorter than recommended for a level 1 MOSFET.
Instance "m:x1:x14:x2:1": Width narrower than recommended for a level 1 MOSFET.
Instance "m:x1:x14:x1:4": Length shorter than recommended for a level 1 MOSFET.
Instance "m:x1:x14:x1:4": Width narrower than recommended for a level 1 MOSFET.
Instance "m:x1:x14:x1:7": Length shorter than recommended for a level 1 MOSFET.
Instance "m:x1:x14:x1:7": Width narrower than recommended for a level 1 MOSFET.
Instance "m:x1:x14:x1:5": Length shorter than recommended for a level 1 MOSFET.
Instance "m:x1:x14:x1:5": Width narrower than recommended for a level 1 MOSFET.
Instance "m:x1:x14:x1:6": Length shorter than recommended for a level 1 MOSFET.
Instance "m:x1:x14:x1:6": Width narrower than recommended for a level 1 MOSFET.
Instance "m:x1:x15:x2:2": Length shorter than recommended for a level 1 MOSFET.
Instance "m:x1:x15:x2:2": Width narrower than recommended for a level 1 MOSFET.
Instance "m:x1:x15:x2:1": Length shorter than recommended for a level 1 MOSFET.
Instance "m:x1:x15:x2:1": Width narrower than recommended for a level 1 MOSFET.
Instance "m:x1:x15:x1:4": Length shorter than recommended for a level 1 MOSFET.
Instance "m:x1:x15:x1:4": Width narrower than recommended for a level 1 MOSFET.
Instance "m:x1:x15:x1:7": Length shorter than recommended for a level 1 MOSFET.
Instance "m:x1:x15:x1:7": Width narrower than recommended for a level 1 MOSFET.
Instance "m:x1:x15:x1:5": Length shorter than recommended for a level 1 MOSFET.
Instance "m:x1:x15:x1:5": Width narrower than recommended for a level 1 MOSFET.
Instance "m:x1:x15:x1:6": Length shorter than recommended for a level 1 MOSFET.
Instance "m:x1:x15:x1:6": Width narrower than recommended for a level 1 MOSFET.
Direct Newton iteration failed to find .op point.  (Use ".option noopiter" to skip.)
Starting Gmin stepping
Gmin = 10
Gmin = 1.07374
Gmin = 0.115292
Gmin = 0.0123794
Gmin = 0.00132923
Gmin = 0.000142725
Gmin = 1.5325e-05
Gmin = 1.6455e-06
Gmin = 1.76685e-07
Gmin = 1.89714e-08
Gmin = 2.03704e-09
Gmin = 2.18725e-10
Gmin = 2.34854e-11
Gmin = 2.52173e-12
Gmin = 2.70769e-13
Gmin = 0
Gmin stepping succeeded in finding the operating point.


Date: Mon Sep 18 14:22:38 2023
Total elapsed time: 0.140 seconds.

tnom = 27
temp = 27
method = modified trap
totiter = 2518
traniter = 2082
tranpoints = 1042
accept = 1042
rejected = 0
matrix size = 114
fillins = 0
solver = Normal
Avg thread counts: 1.5/3.5/1.9/1.5
Matrix Compiler1: 11.56 KB object code size  2.3/0.9/[0.5]
Matrix Compiler2: 13.25 KB object code size  1.3/1.1/[0.5]

