Circuit: * C:\Users\abhir\Desktop\dd\work_folder\testbench-month.asc

WARNING: Node X1:X1:N001 is floating.
WARNING: Node X1:X1:N002 is floating.
WARNING: Node X1:X2:N001 is floating.
WARNING: Node X1:X2:N002 is floating.
WARNING: Node X1:X3:N001 is floating.
WARNING: Node X1:X3:N002 is floating.
WARNING: Node X1:X4:X1:N001 is floating.
WARNING: Node X1:X4:X1:N002 is floating.
WARNING: Node X1:X4:X1:N004 is floating.
WARNING: Node X1:X4:X2:N001 is floating.
WARNING: Node X1:X4:X2:N002 is floating.
WARNING: Node X1:X5:X1:N001 is floating.
WARNING: Node X1:X5:X1:N002 is floating.
WARNING: Node X1:X5:X1:N004 is floating.
WARNING: Node X1:X5:X2:N001 is floating.
WARNING: Node X1:X5:X2:N002 is floating.
WARNING: Node X1:X6:X1:N001 is floating.
WARNING: Node X1:X6:X1:N002 is floating.
WARNING: Node X1:X6:X1:N004 is floating.
WARNING: Node X1:X6:X2:N001 is floating.
WARNING: Node X1:X6:X2:N002 is floating.
WARNING: Node X1:X7:X2:N001 is floating.
WARNING: Node X1:X7:X2:N002 is floating.
WARNING: Node X1:X7:X1:N004 is floating.
WARNING: Node X1:X7:X1:N001 is floating.
WARNING: Node X1:X7:X1:N003 is floating.
WARNING: Node X1:X8:X2:N001 is floating.
WARNING: Node X1:X8:X2:N002 is floating.
WARNING: Node X1:X8:X1:N004 is floating.
WARNING: Node X1:X8:X1:N001 is floating.
WARNING: Node X1:X8:X1:N003 is floating.
WARNING: Node X1:X9:X1:N001 is floating.
WARNING: Node X1:X9:X1:N002 is floating.
WARNING: Node X1:X9:X1:N004 is floating.
WARNING: Node X1:X9:X2:N001 is floating.
WARNING: Node X1:X9:X2:N002 is floating.
WARNING: Node X1:X11:X1:N001 is floating.
WARNING: Node X1:X11:X1:N002 is floating.
WARNING: Node X1:X11:X1:N004 is floating.
WARNING: Node X1:X11:X2:N001 is floating.
WARNING: Node X1:X11:X2:N002 is floating.
WARNING: Node X1:X12:N001 is floating.
WARNING: Node X1:X12:N002 is floating.
WARNING: Node X1:X13:N001 is floating.
WARNING: Node X1:X13:N002 is floating.
WARNING: Node X1:X17:X2:N001 is floating.
WARNING: Node X1:X17:X2:N002 is floating.
WARNING: Node X1:X17:X1:N004 is floating.
WARNING: Node X1:X17:X1:N001 is floating.
WARNING: Node X1:X17:X1:N003 is floating.
WARNING: Node X1:X18:X3:N001 is floating.
WARNING: Node X1:X18:X3:N002 is floating.
WARNING: Node X1:X18:X3:N004 is floating.
WARNING: Node X1:X18:X1:N001 is floating.
WARNING: Node X1:X18:X1:N002 is floating.
WARNING: Node X1:X18:X1:N004 is floating.
WARNING: Node X1:X18:X2:N001 is floating.
WARNING: Node X1:X18:X2:N002 is floating.
WARNING: Node X1:X18:X2:N004 is floating.
WARNING: Node X1:X18:X4:N001 is floating.
WARNING: Node X1:X18:X4:N002 is floating.
WARNING: Node X1:X18:X4:N004 is floating.
WARNING: Node X1:X19:X1:N001 is floating.
WARNING: Node X1:X19:X1:N002 is floating.
WARNING: Node X1:X19:X1:N004 is floating.
WARNING: Node X1:X19:X2:N001 is floating.
WARNING: Node X1:X19:X2:N002 is floating.
WARNING: Node X1:X20:X1:N001 is floating.
WARNING: Node X1:X20:X1:N002 is floating.
WARNING: Node X1:X20:X1:N004 is floating.
WARNING: Node X1:X20:X2:N001 is floating.
WARNING: Node X1:X20:X2:N002 is floating.
WARNING: Node X1:X21:X1:N001 is floating.
WARNING: Node X1:X21:X1:N002 is floating.
WARNING: Node X1:X21:X1:N004 is floating.
WARNING: Node X1:X21:X2:N001 is floating.
WARNING: Node X1:X21:X2:N002 is floating.
WARNING: Node X1:X22:N001 is floating.
WARNING: Node X1:X22:N002 is floating.
WARNING: Node X1:X23:X2:N001 is floating.
WARNING: Node X1:X23:X2:N002 is floating.
WARNING: Node X1:X23:X1:N004 is floating.
WARNING: Node X1:X23:X1:N001 is floating.
WARNING: Node X1:X23:X1:N003 is floating.
WARNING: Node X1:X24:X1:N001 is floating.
WARNING: Node X1:X24:X1:N002 is floating.
WARNING: Node X1:X24:X1:N004 is floating.
WARNING: Node X1:X24:X2:N001 is floating.
WARNING: Node X1:X24:X2:N002 is floating.
WARNING: Node X1:X25:X2:N001 is floating.
WARNING: Node X1:X25:X2:N002 is floating.
WARNING: Node X1:X25:X1:N004 is floating.
WARNING: Node X1:X25:X1:N001 is floating.
WARNING: Node X1:X25:X1:N003 is floating.
WARNING: Node X1:X26:N001 is floating.
WARNING: Node X1:X26:N002 is floating.
WARNING: Node X1:X10:X1:N001 is floating.
WARNING: Node X1:X10:X1:N002 is floating.
WARNING: Node X1:X10:X1:N004 is floating.
WARNING: Node X1:X10:X2:N001 is floating.
WARNING: Node X1:X10:X2:N002 is floating.
WARNING: Node X1:X14:N001 is floating.
WARNING: Node X1:X14:N002 is floating.
WARNING: Node X1:X15:X1:N001 is floating.
WARNING: Node X1:X15:X1:N002 is floating.
WARNING: Node X1:X15:X1:N004 is floating.
WARNING: Node X1:X15:X2:N001 is floating.
WARNING: Node X1:X15:X2:N002 is floating.
WARNING: Node X1:X16:N001 is floating.
WARNING: Node X1:X16:N002 is floating.
WARNING: Node X1:X27:X1:N001 is floating.
WARNING: Node X1:X27:X1:N002 is floating.
WARNING: Node X1:X27:X1:N004 is floating.
WARNING: Node X1:X27:X2:N001 is floating.
WARNING: Node X1:X27:X2:N002 is floating.
WARNING: Node X1:X28:X2:N001 is floating.
WARNING: Node X1:X28:X2:N002 is floating.
WARNING: Node X1:X28:X1:N004 is floating.
WARNING: Node X1:X28:X1:N001 is floating.
WARNING: Node X1:X28:X1:N003 is floating.
WARNING: Node X1:X29:N001 is floating.
WARNING: Node X1:X29:N002 is floating.

Instance "m:x1:x1:2": Length shorter than recommended for a level 1 MOSFET.
Instance "m:x1:x1:2": Width narrower than recommended for a level 1 MOSFET.
Instance "m:x1:x1:1": Length shorter than recommended for a level 1 MOSFET.
Instance "m:x1:x1:1": Width narrower than recommended for a level 1 MOSFET.
Instance "m:x1:x2:2": Length shorter than recommended for a level 1 MOSFET.
Instance "m:x1:x2:2": Width narrower than recommended for a level 1 MOSFET.
Instance "m:x1:x2:1": Length shorter than recommended for a level 1 MOSFET.
Instance "m:x1:x2:1": Width narrower than recommended for a level 1 MOSFET.
Instance "m:x1:x3:2": Length shorter than recommended for a level 1 MOSFET.
Instance "m:x1:x3:2": Width narrower than recommended for a level 1 MOSFET.
Instance "m:x1:x3:1": Length shorter than recommended for a level 1 MOSFET.
Instance "m:x1:x3:1": Width narrower than recommended for a level 1 MOSFET.
Instance "m:x1:x4:x1:2": Length shorter than recommended for a level 1 MOSFET.
Instance "m:x1:x4:x1:2": Width narrower than recommended for a level 1 MOSFET.
Instance "m:x1:x4:x1:3": Length shorter than recommended for a level 1 MOSFET.
Instance "m:x1:x4:x1:3": Width narrower than recommended for a level 1 MOSFET.
Instance "m:x1:x4:x1:1": Length shorter than recommended for a level 1 MOSFET.
Instance "m:x1:x4:x1:1": Width narrower than recommended for a level 1 MOSFET.
Instance "m:x1:x4:x1:4": Length shorter than recommended for a level 1 MOSFET.
Instance "m:x1:x4:x1:4": Width narrower than recommended for a level 1 MOSFET.
Instance "m:x1:x4:x2:2": Length shorter than recommended for a level 1 MOSFET.
Instance "m:x1:x4:x2:2": Width narrower than recommended for a level 1 MOSFET.
Instance "m:x1:x4:x2:1": Length shorter than recommended for a level 1 MOSFET.
Instance "m:x1:x4:x2:1": Width narrower than recommended for a level 1 MOSFET.
Instance "m:x1:x5:x1:2": Length shorter than recommended for a level 1 MOSFET.
Instance "m:x1:x5:x1:2": Width narrower than recommended for a level 1 MOSFET.
Instance "m:x1:x5:x1:3": Length shorter than recommended for a level 1 MOSFET.
Instance "m:x1:x5:x1:3": Width narrower than recommended for a level 1 MOSFET.
Instance "m:x1:x5:x1:1": Length shorter than recommended for a level 1 MOSFET.
Instance "m:x1:x5:x1:1": Width narrower than recommended for a level 1 MOSFET.
Instance "m:x1:x5:x1:4": Length shorter than recommended for a level 1 MOSFET.
Instance "m:x1:x5:x1:4": Width narrower than recommended for a level 1 MOSFET.
Instance "m:x1:x5:x2:2": Length shorter than recommended for a level 1 MOSFET.
Instance "m:x1:x5:x2:2": Width narrower than recommended for a level 1 MOSFET.
Instance "m:x1:x5:x2:1": Length shorter than recommended for a level 1 MOSFET.
Instance "m:x1:x5:x2:1": Width narrower than recommended for a level 1 MOSFET.
Instance "m:x1:x6:x1:2": Length shorter than recommended for a level 1 MOSFET.
Instance "m:x1:x6:x1:2": Width narrower than recommended for a level 1 MOSFET.
Instance "m:x1:x6:x1:3": Length shorter than recommended for a level 1 MOSFET.
Instance "m:x1:x6:x1:3": Width narrower than recommended for a level 1 MOSFET.
Instance "m:x1:x6:x1:1": Length shorter than recommended for a level 1 MOSFET.
Instance "m:x1:x6:x1:1": Width narrower than recommended for a level 1 MOSFET.
Instance "m:x1:x6:x1:4": Length shorter than recommended for a level 1 MOSFET.
Instance "m:x1:x6:x1:4": Width narrower than recommended for a level 1 MOSFET.
Instance "m:x1:x6:x2:2": Length shorter than recommended for a level 1 MOSFET.
Instance "m:x1:x6:x2:2": Width narrower than recommended for a level 1 MOSFET.
Instance "m:x1:x6:x2:1": Length shorter than recommended for a level 1 MOSFET.
Instance "m:x1:x6:x2:1": Width narrower than recommended for a level 1 MOSFET.
Instance "m:x1:x7:x2:2": Length shorter than recommended for a level 1 MOSFET.
Instance "m:x1:x7:x2:2": Width narrower than recommended for a level 1 MOSFET.
Instance "m:x1:x7:x2:1": Length shorter than recommended for a level 1 MOSFET.
Instance "m:x1:x7:x2:1": Width narrower than recommended for a level 1 MOSFET.
Instance "m:x1:x7:x1:4": Length shorter than recommended for a level 1 MOSFET.
Instance "m:x1:x7:x1:4": Width narrower than recommended for a level 1 MOSFET.
Instance "m:x1:x7:x1:7": Length shorter than recommended for a level 1 MOSFET.
Instance "m:x1:x7:x1:7": Width narrower than recommended for a level 1 MOSFET.
Instance "m:x1:x7:x1:5": Length shorter than recommended for a level 1 MOSFET.
Instance "m:x1:x7:x1:5": Width narrower than recommended for a level 1 MOSFET.
Instance "m:x1:x7:x1:6": Length shorter than recommended for a level 1 MOSFET.
Instance "m:x1:x7:x1:6": Width narrower than recommended for a level 1 MOSFET.
Instance "m:x1:x8:x2:2": Length shorter than recommended for a level 1 MOSFET.
Instance "m:x1:x8:x2:2": Width narrower than recommended for a level 1 MOSFET.
Instance "m:x1:x8:x2:1": Length shorter than recommended for a level 1 MOSFET.
Instance "m:x1:x8:x2:1": Width narrower than recommended for a level 1 MOSFET.
Instance "m:x1:x8:x1:4": Length shorter than recommended for a level 1 MOSFET.
Instance "m:x1:x8:x1:4": Width narrower than recommended for a level 1 MOSFET.
Instance "m:x1:x8:x1:7": Length shorter than recommended for a level 1 MOSFET.
Instance "m:x1:x8:x1:7": Width narrower than recommended for a level 1 MOSFET.
Instance "m:x1:x8:x1:5": Length shorter than recommended for a level 1 MOSFET.
Instance "m:x1:x8:x1:5": Width narrower than recommended for a level 1 MOSFET.
Instance "m:x1:x8:x1:6": Length shorter than recommended for a level 1 MOSFET.
Instance "m:x1:x8:x1:6": Width narrower than recommended for a level 1 MOSFET.
Instance "m:x1:x9:x1:2": Length shorter than recommended for a level 1 MOSFET.
Instance "m:x1:x9:x1:2": Width narrower than recommended for a level 1 MOSFET.
Instance "m:x1:x9:x1:3": Length shorter than recommended for a level 1 MOSFET.
Instance "m:x1:x9:x1:3": Width narrower than recommended for a level 1 MOSFET.
Instance "m:x1:x9:x1:1": Length shorter than recommended for a level 1 MOSFET.
Instance "m:x1:x9:x1:1": Width narrower than recommended for a level 1 MOSFET.
Instance "m:x1:x9:x1:4": Length shorter than recommended for a level 1 MOSFET.
Instance "m:x1:x9:x1:4": Width narrower than recommended for a level 1 MOSFET.
Instance "m:x1:x9:x2:2": Length shorter than recommended for a level 1 MOSFET.
Instance "m:x1:x9:x2:2": Width narrower than recommended for a level 1 MOSFET.
Instance "m:x1:x9:x2:1": Length shorter than recommended for a level 1 MOSFET.
Instance "m:x1:x9:x2:1": Width narrower than recommended for a level 1 MOSFET.
Instance "m:x1:x11:x1:2": Length shorter than recommended for a level 1 MOSFET.
Instance "m:x1:x11:x1:2": Width narrower than recommended for a level 1 MOSFET.
Instance "m:x1:x11:x1:3": Length shorter than recommended for a level 1 MOSFET.
Instance "m:x1:x11:x1:3": Width narrower than recommended for a level 1 MOSFET.
Instance "m:x1:x11:x1:1": Length shorter than recommended for a level 1 MOSFET.
Instance "m:x1:x11:x1:1": Width narrower than recommended for a level 1 MOSFET.
Instance "m:x1:x11:x1:4": Length shorter than recommended for a level 1 MOSFET.
Instance "m:x1:x11:x1:4": Width narrower than recommended for a level 1 MOSFET.
Instance "m:x1:x11:x2:2": Length shorter than recommended for a level 1 MOSFET.
Instance "m:x1:x11:x2:2": Width narrower than recommended for a level 1 MOSFET.
Instance "m:x1:x11:x2:1": Length shorter than recommended for a level 1 MOSFET.
Instance "m:x1:x11:x2:1": Width narrower than recommended for a level 1 MOSFET.
Instance "m:x1:x12:2": Length shorter than recommended for a level 1 MOSFET.
Instance "m:x1:x12:2": Width narrower than recommended for a level 1 MOSFET.
Instance "m:x1:x12:1": Length shorter than recommended for a level 1 MOSFET.
Instance "m:x1:x12:1": Width narrower than recommended for a level 1 MOSFET.
Instance "m:x1:x13:2": Length shorter than recommended for a level 1 MOSFET.
Instance "m:x1:x13:2": Width narrower than recommended for a level 1 MOSFET.
Instance "m:x1:x13:1": Length shorter than recommended for a level 1 MOSFET.
Instance "m:x1:x13:1": Width narrower than recommended for a level 1 MOSFET.
Instance "m:x1:x17:x2:2": Length shorter than recommended for a level 1 MOSFET.
Instance "m:x1:x17:x2:2": Width narrower than recommended for a level 1 MOSFET.
Instance "m:x1:x17:x2:1": Length shorter than recommended for a level 1 MOSFET.
Instance "m:x1:x17:x2:1": Width narrower than recommended for a level 1 MOSFET.
Instance "m:x1:x17:x1:4": Length shorter than recommended for a level 1 MOSFET.
Instance "m:x1:x17:x1:4": Width narrower than recommended for a level 1 MOSFET.
Instance "m:x1:x17:x1:7": Length shorter than recommended for a level 1 MOSFET.
Instance "m:x1:x17:x1:7": Width narrower than recommended for a level 1 MOSFET.
Instance "m:x1:x17:x1:5": Length shorter than recommended for a level 1 MOSFET.
Instance "m:x1:x17:x1:5": Width narrower than recommended for a level 1 MOSFET.
Instance "m:x1:x17:x1:6": Length shorter than recommended for a level 1 MOSFET.
Instance "m:x1:x17:x1:6": Width narrower than recommended for a level 1 MOSFET.
Instance "m:x1:x18:x3:2": Length shorter than recommended for a level 1 MOSFET.
Instance "m:x1:x18:x3:2": Width narrower than recommended for a level 1 MOSFET.
Instance "m:x1:x18:x3:3": Length shorter than recommended for a level 1 MOSFET.
Instance "m:x1:x18:x3:3": Width narrower than recommended for a level 1 MOSFET.
Instance "m:x1:x18:x3:1": Length shorter than recommended for a level 1 MOSFET.
Instance "m:x1:x18:x3:1": Width narrower than recommended for a level 1 MOSFET.
Instance "m:x1:x18:x3:4": Length shorter than recommended for a level 1 MOSFET.
Instance "m:x1:x18:x3:4": Width narrower than recommended for a level 1 MOSFET.
Instance "m:x1:x18:x1:2": Length shorter than recommended for a level 1 MOSFET.
Instance "m:x1:x18:x1:2": Width narrower than recommended for a level 1 MOSFET.
Instance "m:x1:x18:x1:3": Length shorter than recommended for a level 1 MOSFET.
Instance "m:x1:x18:x1:3": Width narrower than recommended for a level 1 MOSFET.
Instance "m:x1:x18:x1:1": Length shorter than recommended for a level 1 MOSFET.
Instance "m:x1:x18:x1:1": Width narrower than recommended for a level 1 MOSFET.
Instance "m:x1:x18:x1:4": Length shorter than recommended for a level 1 MOSFET.
Instance "m:x1:x18:x1:4": Width narrower than recommended for a level 1 MOSFET.
Instance "m:x1:x18:x2:2": Length shorter than recommended for a level 1 MOSFET.
Instance "m:x1:x18:x2:2": Width narrower than recommended for a level 1 MOSFET.
Instance "m:x1:x18:x2:3": Length shorter than recommended for a level 1 MOSFET.
Instance "m:x1:x18:x2:3": Width narrower than recommended for a level 1 MOSFET.
Instance "m:x1:x18:x2:1": Length shorter than recommended for a level 1 MOSFET.
Instance "m:x1:x18:x2:1": Width narrower than recommended for a level 1 MOSFET.
Instance "m:x1:x18:x2:4": Length shorter than recommended for a level 1 MOSFET.
Instance "m:x1:x18:x2:4": Width narrower than recommended for a level 1 MOSFET.
Instance "m:x1:x18:x4:2": Length shorter than recommended for a level 1 MOSFET.
Instance "m:x1:x18:x4:2": Width narrower than recommended for a level 1 MOSFET.
Instance "m:x1:x18:x4:3": Length shorter than recommended for a level 1 MOSFET.
Instance "m:x1:x18:x4:3": Width narrower than recommended for a level 1 MOSFET.
Instance "m:x1:x18:x4:1": Length shorter than recommended for a level 1 MOSFET.
Instance "m:x1:x18:x4:1": Width narrower than recommended for a level 1 MOSFET.
Instance "m:x1:x18:x4:4": Length shorter than recommended for a level 1 MOSFET.
Instance "m:x1:x18:x4:4": Width narrower than recommended for a level 1 MOSFET.
Instance "m:x1:x19:x1:2": Length shorter than recommended for a level 1 MOSFET.
Instance "m:x1:x19:x1:2": Width narrower than recommended for a level 1 MOSFET.
Instance "m:x1:x19:x1:3": Length shorter than recommended for a level 1 MOSFET.
Instance "m:x1:x19:x1:3": Width narrower than recommended for a level 1 MOSFET.
Instance "m:x1:x19:x1:1": Length shorter than recommended for a level 1 MOSFET.
Instance "m:x1:x19:x1:1": Width narrower than recommended for a level 1 MOSFET.
Instance "m:x1:x19:x1:4": Length shorter than recommended for a level 1 MOSFET.
Instance "m:x1:x19:x1:4": Width narrower than recommended for a level 1 MOSFET.
Instance "m:x1:x19:x2:2": Length shorter than recommended for a level 1 MOSFET.
Instance "m:x1:x19:x2:2": Width narrower than recommended for a level 1 MOSFET.
Instance "m:x1:x19:x2:1": Length shorter than recommended for a level 1 MOSFET.
Instance "m:x1:x19:x2:1": Width narrower than recommended for a level 1 MOSFET.
Instance "m:x1:x20:x1:2": Length shorter than recommended for a level 1 MOSFET.
Instance "m:x1:x20:x1:2": Width narrower than recommended for a level 1 MOSFET.
Instance "m:x1:x20:x1:3": Length shorter than recommended for a level 1 MOSFET.
Instance "m:x1:x20:x1:3": Width narrower than recommended for a level 1 MOSFET.
Instance "m:x1:x20:x1:1": Length shorter than recommended for a level 1 MOSFET.
Instance "m:x1:x20:x1:1": Width narrower than recommended for a level 1 MOSFET.
Instance "m:x1:x20:x1:4": Length shorter than recommended for a level 1 MOSFET.
Instance "m:x1:x20:x1:4": Width narrower than recommended for a level 1 MOSFET.
Instance "m:x1:x20:x2:2": Length shorter than recommended for a level 1 MOSFET.
Instance "m:x1:x20:x2:2": Width narrower than recommended for a level 1 MOSFET.
Instance "m:x1:x20:x2:1": Length shorter than recommended for a level 1 MOSFET.
Instance "m:x1:x20:x2:1": Width narrower than recommended for a level 1 MOSFET.
Instance "m:x1:x21:x1:2": Length shorter than recommended for a level 1 MOSFET.
Instance "m:x1:x21:x1:2": Width narrower than recommended for a level 1 MOSFET.
Instance "m:x1:x21:x1:3": Length shorter than recommended for a level 1 MOSFET.
Instance "m:x1:x21:x1:3": Width narrower than recommended for a level 1 MOSFET.
Instance "m:x1:x21:x1:1": Length shorter than recommended for a level 1 MOSFET.
Instance "m:x1:x21:x1:1": Width narrower than recommended for a level 1 MOSFET.
Instance "m:x1:x21:x1:4": Length shorter than recommended for a level 1 MOSFET.
Instance "m:x1:x21:x1:4": Width narrower than recommended for a level 1 MOSFET.
Instance "m:x1:x21:x2:2": Length shorter than recommended for a level 1 MOSFET.
Instance "m:x1:x21:x2:2": Width narrower than recommended for a level 1 MOSFET.
Instance "m:x1:x21:x2:1": Length shorter than recommended for a level 1 MOSFET.
Instance "m:x1:x21:x2:1": Width narrower than recommended for a level 1 MOSFET.
Instance "m:x1:x22:2": Length shorter than recommended for a level 1 MOSFET.
Instance "m:x1:x22:2": Width narrower than recommended for a level 1 MOSFET.
Instance "m:x1:x22:1": Length shorter than recommended for a level 1 MOSFET.
Instance "m:x1:x22:1": Width narrower than recommended for a level 1 MOSFET.
Instance "m:x1:x23:x2:2": Length shorter than recommended for a level 1 MOSFET.
Instance "m:x1:x23:x2:2": Width narrower than recommended for a level 1 MOSFET.
Instance "m:x1:x23:x2:1": Length shorter than recommended for a level 1 MOSFET.
Instance "m:x1:x23:x2:1": Width narrower than recommended for a level 1 MOSFET.
Instance "m:x1:x23:x1:4": Length shorter than recommended for a level 1 MOSFET.
Instance "m:x1:x23:x1:4": Width narrower than recommended for a level 1 MOSFET.
Instance "m:x1:x23:x1:7": Length shorter than recommended for a level 1 MOSFET.
Instance "m:x1:x23:x1:7": Width narrower than recommended for a level 1 MOSFET.
Instance "m:x1:x23:x1:5": Length shorter than recommended for a level 1 MOSFET.
Instance "m:x1:x23:x1:5": Width narrower than recommended for a level 1 MOSFET.
Instance "m:x1:x23:x1:6": Length shorter than recommended for a level 1 MOSFET.
Instance "m:x1:x23:x1:6": Width narrower than recommended for a level 1 MOSFET.
Instance "m:x1:x24:x1:2": Length shorter than recommended for a level 1 MOSFET.
Instance "m:x1:x24:x1:2": Width narrower than recommended for a level 1 MOSFET.
Instance "m:x1:x24:x1:3": Length shorter than recommended for a level 1 MOSFET.
Instance "m:x1:x24:x1:3": Width narrower than recommended for a level 1 MOSFET.
Instance "m:x1:x24:x1:1": Length shorter than recommended for a level 1 MOSFET.
Instance "m:x1:x24:x1:1": Width narrower than recommended for a level 1 MOSFET.
Instance "m:x1:x24:x1:4": Length shorter than recommended for a level 1 MOSFET.
Instance "m:x1:x24:x1:4": Width narrower than recommended for a level 1 MOSFET.
Instance "m:x1:x24:x2:2": Length shorter than recommended for a level 1 MOSFET.
Instance "m:x1:x24:x2:2": Width narrower than recommended for a level 1 MOSFET.
Instance "m:x1:x24:x2:1": Length shorter than recommended for a level 1 MOSFET.
Instance "m:x1:x24:x2:1": Width narrower than recommended for a level 1 MOSFET.
Instance "m:x1:x25:x2:2": Length shorter than recommended for a level 1 MOSFET.
Instance "m:x1:x25:x2:2": Width narrower than recommended for a level 1 MOSFET.
Instance "m:x1:x25:x2:1": Length shorter than recommended for a level 1 MOSFET.
Instance "m:x1:x25:x2:1": Width narrower than recommended for a level 1 MOSFET.
Instance "m:x1:x25:x1:4": Length shorter than recommended for a level 1 MOSFET.
Instance "m:x1:x25:x1:4": Width narrower than recommended for a level 1 MOSFET.
Instance "m:x1:x25:x1:7": Length shorter than recommended for a level 1 MOSFET.
Instance "m:x1:x25:x1:7": Width narrower than recommended for a level 1 MOSFET.
Instance "m:x1:x25:x1:5": Length shorter than recommended for a level 1 MOSFET.
Instance "m:x1:x25:x1:5": Width narrower than recommended for a level 1 MOSFET.
Instance "m:x1:x25:x1:6": Length shorter than recommended for a level 1 MOSFET.
Instance "m:x1:x25:x1:6": Width narrower than recommended for a level 1 MOSFET.
Instance "m:x1:x26:2": Length shorter than recommended for a level 1 MOSFET.
Instance "m:x1:x26:2": Width narrower than recommended for a level 1 MOSFET.
Instance "m:x1:x26:1": Length shorter than recommended for a level 1 MOSFET.
Instance "m:x1:x26:1": Width narrower than recommended for a level 1 MOSFET.
Instance "m:x1:x10:x1:2": Length shorter than recommended for a level 1 MOSFET.
Instance "m:x1:x10:x1:2": Width narrower than recommended for a level 1 MOSFET.
Instance "m:x1:x10:x1:3": Length shorter than recommended for a level 1 MOSFET.
Instance "m:x1:x10:x1:3": Width narrower than recommended for a level 1 MOSFET.
Instance "m:x1:x10:x1:1": Length shorter than recommended for a level 1 MOSFET.
Instance "m:x1:x10:x1:1": Width narrower than recommended for a level 1 MOSFET.
Instance "m:x1:x10:x1:4": Length shorter than recommended for a level 1 MOSFET.
Instance "m:x1:x10:x1:4": Width narrower than recommended for a level 1 MOSFET.
Instance "m:x1:x10:x2:2": Length shorter than recommended for a level 1 MOSFET.
Instance "m:x1:x10:x2:2": Width narrower than recommended for a level 1 MOSFET.
Instance "m:x1:x10:x2:1": Length shorter than recommended for a level 1 MOSFET.
Instance "m:x1:x10:x2:1": Width narrower than recommended for a level 1 MOSFET.
Instance "m:x1:x14:2": Length shorter than recommended for a level 1 MOSFET.
Instance "m:x1:x14:2": Width narrower than recommended for a level 1 MOSFET.
Instance "m:x1:x14:1": Length shorter than recommended for a level 1 MOSFET.
Instance "m:x1:x14:1": Width narrower than recommended for a level 1 MOSFET.
Instance "m:x1:x15:x1:2": Length shorter than recommended for a level 1 MOSFET.
Instance "m:x1:x15:x1:2": Width narrower than recommended for a level 1 MOSFET.
Instance "m:x1:x15:x1:3": Length shorter than recommended for a level 1 MOSFET.
Instance "m:x1:x15:x1:3": Width narrower than recommended for a level 1 MOSFET.
Instance "m:x1:x15:x1:1": Length shorter than recommended for a level 1 MOSFET.
Instance "m:x1:x15:x1:1": Width narrower than recommended for a level 1 MOSFET.
Instance "m:x1:x15:x1:4": Length shorter than recommended for a level 1 MOSFET.
Instance "m:x1:x15:x1:4": Width narrower than recommended for a level 1 MOSFET.
Instance "m:x1:x15:x2:2": Length shorter than recommended for a level 1 MOSFET.
Instance "m:x1:x15:x2:2": Width narrower than recommended for a level 1 MOSFET.
Instance "m:x1:x15:x2:1": Length shorter than recommended for a level 1 MOSFET.
Instance "m:x1:x15:x2:1": Width narrower than recommended for a level 1 MOSFET.
Instance "m:x1:x16:2": Length shorter than recommended for a level 1 MOSFET.
Instance "m:x1:x16:2": Width narrower than recommended for a level 1 MOSFET.
Instance "m:x1:x16:1": Length shorter than recommended for a level 1 MOSFET.
Instance "m:x1:x16:1": Width narrower than recommended for a level 1 MOSFET.
Instance "m:x1:x27:x1:2": Length shorter than recommended for a level 1 MOSFET.
Instance "m:x1:x27:x1:2": Width narrower than recommended for a level 1 MOSFET.
Instance "m:x1:x27:x1:3": Length shorter than recommended for a level 1 MOSFET.
Instance "m:x1:x27:x1:3": Width narrower than recommended for a level 1 MOSFET.
Instance "m:x1:x27:x1:1": Length shorter than recommended for a level 1 MOSFET.
Instance "m:x1:x27:x1:1": Width narrower than recommended for a level 1 MOSFET.
Instance "m:x1:x27:x1:4": Length shorter than recommended for a level 1 MOSFET.
Instance "m:x1:x27:x1:4": Width narrower than recommended for a level 1 MOSFET.
Instance "m:x1:x27:x2:2": Length shorter than recommended for a level 1 MOSFET.
Instance "m:x1:x27:x2:2": Width narrower than recommended for a level 1 MOSFET.
Instance "m:x1:x27:x2:1": Length shorter than recommended for a level 1 MOSFET.
Instance "m:x1:x27:x2:1": Width narrower than recommended for a level 1 MOSFET.
Instance "m:x1:x28:x2:2": Length shorter than recommended for a level 1 MOSFET.
Instance "m:x1:x28:x2:2": Width narrower than recommended for a level 1 MOSFET.
Instance "m:x1:x28:x2:1": Length shorter than recommended for a level 1 MOSFET.
Instance "m:x1:x28:x2:1": Width narrower than recommended for a level 1 MOSFET.
Instance "m:x1:x28:x1:4": Length shorter than recommended for a level 1 MOSFET.
Instance "m:x1:x28:x1:4": Width narrower than recommended for a level 1 MOSFET.
Instance "m:x1:x28:x1:7": Length shorter than recommended for a level 1 MOSFET.
Instance "m:x1:x28:x1:7": Width narrower than recommended for a level 1 MOSFET.
Instance "m:x1:x28:x1:5": Length shorter than recommended for a level 1 MOSFET.
Instance "m:x1:x28:x1:5": Width narrower than recommended for a level 1 MOSFET.
Instance "m:x1:x28:x1:6": Length shorter than recommended for a level 1 MOSFET.
Instance "m:x1:x28:x1:6": Width narrower than recommended for a level 1 MOSFET.
Instance "m:x1:x29:2": Length shorter than recommended for a level 1 MOSFET.
Instance "m:x1:x29:2": Width narrower than recommended for a level 1 MOSFET.
Instance "m:x1:x29:1": Length shorter than recommended for a level 1 MOSFET.
Instance "m:x1:x29:1": Width narrower than recommended for a level 1 MOSFET.
Direct Newton iteration failed to find .op point.  (Use ".option noopiter" to skip.)
Starting Gmin stepping
Gmin = 10
Gmin = 1.07374
Gmin = 0.115292
Gmin = 0.0123794
Gmin = 0.00132923
Gmin = 0.000142725
Gmin = 1.5325e-05
Gmin = 1.6455e-06
Gmin = 1.76685e-07
Gmin = 1.89714e-08
Gmin = 2.03704e-09
Gmin = 2.18725e-10
Gmin = 2.34854e-11
Gmin = 2.52173e-12
Gmin = 2.70769e-13
Gmin = 0
Gmin stepping succeeded in finding the operating point.


Date: Wed Oct 25 07:28:49 2023
Total elapsed time: 0.210 seconds.

tnom = 27
temp = 27
method = modified trap
totiter = 2531
traniter = 2082
tranpoints = 1042
accept = 1042
rejected = 0
matrix size = 204
fillins = 6
solver = Normal
Avg thread counts: 3.9/5.0/4.9/2.9
Matrix Compiler1: 22.32 KB object code size  4.0/1.8/[0.8]
Matrix Compiler2: 24.82 KB object code size  2.9/2.8/[1.2]

