Circuit: * C:\Users\abhir\Desktop\dd\work_folder\testbench-Date_to_Day_Converter.asc

WARNING: Node X1:X1:X1:X1:X3:N001 is floating.
WARNING: Node X1:X1:X1:X1:X3:N002 is floating.
WARNING: Node X1:X1:X1:X1:X3:N004 is floating.
WARNING: Node X1:X1:X1:X1:X1:N001 is floating.
WARNING: Node X1:X1:X1:X1:X1:N002 is floating.
WARNING: Node X1:X1:X1:X1:X1:N004 is floating.
WARNING: Node X1:X1:X1:X1:X2:N001 is floating.
WARNING: Node X1:X1:X1:X1:X2:N002 is floating.
WARNING: Node X1:X1:X1:X1:X2:N004 is floating.
WARNING: Node X1:X1:X1:X1:X4:N001 is floating.
WARNING: Node X1:X1:X1:X1:X4:N002 is floating.
WARNING: Node X1:X1:X1:X1:X4:N004 is floating.
WARNING: Node X1:X1:X1:X2:X3:N001 is floating.
WARNING: Node X1:X1:X1:X2:X3:N002 is floating.
WARNING: Node X1:X1:X1:X2:X3:N004 is floating.
WARNING: Node X1:X1:X1:X2:X1:N001 is floating.
WARNING: Node X1:X1:X1:X2:X1:N002 is floating.
WARNING: Node X1:X1:X1:X2:X1:N004 is floating.
WARNING: Node X1:X1:X1:X2:X2:N001 is floating.
WARNING: Node X1:X1:X1:X2:X2:N002 is floating.
WARNING: Node X1:X1:X1:X2:X2:N004 is floating.
WARNING: Node X1:X1:X1:X2:X4:N001 is floating.
WARNING: Node X1:X1:X1:X2:X4:N002 is floating.
WARNING: Node X1:X1:X1:X2:X4:N004 is floating.
WARNING: Node X1:X1:X1:X3:X1:N001 is floating.
WARNING: Node X1:X1:X1:X3:X1:N002 is floating.
WARNING: Node X1:X1:X1:X3:X1:N004 is floating.
WARNING: Node X1:X1:X1:X3:X2:N001 is floating.
WARNING: Node X1:X1:X1:X3:X2:N002 is floating.
WARNING: Node X1:X1:X1:X4:X1:N001 is floating.
WARNING: Node X1:X1:X1:X4:X1:N002 is floating.
WARNING: Node X1:X1:X1:X4:X1:N004 is floating.
WARNING: Node X1:X1:X1:X4:X2:N001 is floating.
WARNING: Node X1:X1:X1:X4:X2:N002 is floating.
WARNING: Node X1:X1:X1:X5:X2:N001 is floating.
WARNING: Node X1:X1:X1:X5:X2:N002 is floating.
WARNING: Node X1:X1:X1:X5:X1:N004 is floating.
WARNING: Node X1:X1:X1:X5:X1:N001 is floating.
WARNING: Node X1:X1:X1:X5:X1:N003 is floating.
WARNING: Node X1:X1:X2:X1:X3:N001 is floating.
WARNING: Node X1:X1:X2:X1:X3:N002 is floating.
WARNING: Node X1:X1:X2:X1:X3:N004 is floating.
WARNING: Node X1:X1:X2:X1:X1:N001 is floating.
WARNING: Node X1:X1:X2:X1:X1:N002 is floating.
WARNING: Node X1:X1:X2:X1:X1:N004 is floating.
WARNING: Node X1:X1:X2:X1:X2:N001 is floating.
WARNING: Node X1:X1:X2:X1:X2:N002 is floating.
WARNING: Node X1:X1:X2:X1:X2:N004 is floating.
WARNING: Node X1:X1:X2:X1:X4:N001 is floating.
WARNING: Node X1:X1:X2:X1:X4:N002 is floating.
WARNING: Node X1:X1:X2:X1:X4:N004 is floating.
WARNING: Node X1:X1:X2:X2:X3:N001 is floating.
WARNING: Node X1:X1:X2:X2:X3:N002 is floating.
WARNING: Node X1:X1:X2:X2:X3:N004 is floating.
WARNING: Node X1:X1:X2:X2:X1:N001 is floating.
WARNING: Node X1:X1:X2:X2:X1:N002 is floating.
WARNING: Node X1:X1:X2:X2:X1:N004 is floating.
WARNING: Node X1:X1:X2:X2:X2:N001 is floating.
WARNING: Node X1:X1:X2:X2:X2:N002 is floating.
WARNING: Node X1:X1:X2:X2:X2:N004 is floating.
WARNING: Node X1:X1:X2:X2:X4:N001 is floating.
WARNING: Node X1:X1:X2:X2:X4:N002 is floating.
WARNING: Node X1:X1:X2:X2:X4:N004 is floating.
WARNING: Node X1:X1:X2:X3:X1:N001 is floating.
WARNING: Node X1:X1:X2:X3:X1:N002 is floating.
WARNING: Node X1:X1:X2:X3:X1:N004 is floating.
WARNING: Node X1:X1:X2:X3:X2:N001 is floating.
WARNING: Node X1:X1:X2:X3:X2:N002 is floating.
WARNING: Node X1:X1:X2:X4:X1:N001 is floating.
WARNING: Node X1:X1:X2:X4:X1:N002 is floating.
WARNING: Node X1:X1:X2:X4:X1:N004 is floating.
WARNING: Node X1:X1:X2:X4:X2:N001 is floating.
WARNING: Node X1:X1:X2:X4:X2:N002 is floating.
WARNING: Node X1:X1:X2:X5:X2:N001 is floating.
WARNING: Node X1:X1:X2:X5:X2:N002 is floating.
WARNING: Node X1:X1:X2:X5:X1:N004 is floating.
WARNING: Node X1:X1:X2:X5:X1:N001 is floating.
WARNING: Node X1:X1:X2:X5:X1:N003 is floating.
WARNING: Node X1:X1:X3:X1:X3:N001 is floating.
WARNING: Node X1:X1:X3:X1:X3:N002 is floating.
WARNING: Node X1:X1:X3:X1:X3:N004 is floating.
WARNING: Node X1:X1:X3:X1:X1:N001 is floating.
WARNING: Node X1:X1:X3:X1:X1:N002 is floating.
WARNING: Node X1:X1:X3:X1:X1:N004 is floating.
WARNING: Node X1:X1:X3:X1:X2:N001 is floating.
WARNING: Node X1:X1:X3:X1:X2:N002 is floating.
WARNING: Node X1:X1:X3:X1:X2:N004 is floating.
WARNING: Node X1:X1:X3:X1:X4:N001 is floating.
WARNING: Node X1:X1:X3:X1:X4:N002 is floating.
WARNING: Node X1:X1:X3:X1:X4:N004 is floating.
WARNING: Node X1:X1:X3:X2:X3:N001 is floating.
WARNING: Node X1:X1:X3:X2:X3:N002 is floating.
WARNING: Node X1:X1:X3:X2:X3:N004 is floating.
WARNING: Node X1:X1:X3:X2:X1:N001 is floating.
WARNING: Node X1:X1:X3:X2:X1:N002 is floating.
WARNING: Node X1:X1:X3:X2:X1:N004 is floating.
WARNING: Node X1:X1:X3:X2:X2:N001 is floating.
WARNING: Node X1:X1:X3:X2:X2:N002 is floating.
WARNING: Node X1:X1:X3:X2:X2:N004 is floating.
WARNING: Node X1:X1:X3:X2:X4:N001 is floating.
WARNING: Node X1:X1:X3:X2:X4:N002 is floating.
WARNING: Node X1:X1:X3:X2:X4:N004 is floating.
WARNING: Node X1:X1:X3:X3:X1:N001 is floating.
WARNING: Node X1:X1:X3:X3:X1:N002 is floating.
WARNING: Node X1:X1:X3:X3:X1:N004 is floating.
WARNING: Node X1:X1:X3:X3:X2:N001 is floating.
WARNING: Node X1:X1:X3:X3:X2:N002 is floating.
WARNING: Node X1:X1:X3:X4:X1:N001 is floating.
WARNING: Node X1:X1:X3:X4:X1:N002 is floating.
WARNING: Node X1:X1:X3:X4:X1:N004 is floating.
WARNING: Node X1:X1:X3:X4:X2:N001 is floating.
WARNING: Node X1:X1:X3:X4:X2:N002 is floating.
WARNING: Node X1:X1:X3:X5:X2:N001 is floating.
WARNING: Node X1:X1:X3:X5:X2:N002 is floating.
WARNING: Node X1:X1:X3:X5:X1:N004 is floating.
WARNING: Node X1:X1:X3:X5:X1:N001 is floating.
WARNING: Node X1:X1:X3:X5:X1:N003 is floating.
WARNING: Node X1:X1:X4:X1:X3:N001 is floating.
WARNING: Node X1:X1:X4:X1:X3:N002 is floating.
WARNING: Node X1:X1:X4:X1:X3:N004 is floating.
WARNING: Node X1:X1:X4:X1:X1:N001 is floating.
WARNING: Node X1:X1:X4:X1:X1:N002 is floating.
WARNING: Node X1:X1:X4:X1:X1:N004 is floating.
WARNING: Node X1:X1:X4:X1:X2:N001 is floating.
WARNING: Node X1:X1:X4:X1:X2:N002 is floating.
WARNING: Node X1:X1:X4:X1:X2:N004 is floating.
WARNING: Node X1:X1:X4:X1:X4:N001 is floating.
WARNING: Node X1:X1:X4:X1:X4:N002 is floating.
WARNING: Node X1:X1:X4:X1:X4:N004 is floating.
WARNING: Node X1:X1:X4:X2:X3:N001 is floating.
WARNING: Node X1:X1:X4:X2:X3:N002 is floating.
WARNING: Node X1:X1:X4:X2:X3:N004 is floating.
WARNING: Node X1:X1:X4:X2:X1:N001 is floating.
WARNING: Node X1:X1:X4:X2:X1:N002 is floating.
WARNING: Node X1:X1:X4:X2:X1:N004 is floating.
WARNING: Node X1:X1:X4:X2:X2:N001 is floating.
WARNING: Node X1:X1:X4:X2:X2:N002 is floating.
WARNING: Node X1:X1:X4:X2:X2:N004 is floating.
WARNING: Node X1:X1:X4:X2:X4:N001 is floating.
WARNING: Node X1:X1:X4:X2:X4:N002 is floating.
WARNING: Node X1:X1:X4:X2:X4:N004 is floating.
WARNING: Node X1:X1:X4:X3:X1:N001 is floating.
WARNING: Node X1:X1:X4:X3:X1:N002 is floating.
WARNING: Node X1:X1:X4:X3:X1:N004 is floating.
WARNING: Node X1:X1:X4:X3:X2:N001 is floating.
WARNING: Node X1:X1:X4:X3:X2:N002 is floating.
WARNING: Node X1:X1:X4:X4:X1:N001 is floating.
WARNING: Node X1:X1:X4:X4:X1:N002 is floating.
WARNING: Node X1:X1:X4:X4:X1:N004 is floating.
WARNING: Node X1:X1:X4:X4:X2:N001 is floating.
WARNING: Node X1:X1:X4:X4:X2:N002 is floating.
WARNING: Node X1:X1:X4:X5:X2:N001 is floating.
WARNING: Node X1:X1:X4:X5:X2:N002 is floating.
WARNING: Node X1:X1:X4:X5:X1:N004 is floating.
WARNING: Node X1:X1:X4:X5:X1:N001 is floating.
WARNING: Node X1:X1:X4:X5:X1:N003 is floating.
WARNING: Node X1:X1:X5:X1:X3:N001 is floating.
WARNING: Node X1:X1:X5:X1:X3:N002 is floating.
WARNING: Node X1:X1:X5:X1:X3:N004 is floating.
WARNING: Node X1:X1:X5:X1:X1:N001 is floating.
WARNING: Node X1:X1:X5:X1:X1:N002 is floating.
WARNING: Node X1:X1:X5:X1:X1:N004 is floating.
WARNING: Node X1:X1:X5:X1:X2:N001 is floating.
WARNING: Node X1:X1:X5:X1:X2:N002 is floating.
WARNING: Node X1:X1:X5:X1:X2:N004 is floating.
WARNING: Node X1:X1:X5:X1:X4:N001 is floating.
WARNING: Node X1:X1:X5:X1:X4:N002 is floating.
WARNING: Node X1:X1:X5:X1:X4:N004 is floating.
WARNING: Node X1:X1:X5:X2:X3:N001 is floating.
WARNING: Node X1:X1:X5:X2:X3:N002 is floating.
WARNING: Node X1:X1:X5:X2:X3:N004 is floating.
WARNING: Node X1:X1:X5:X2:X1:N001 is floating.
WARNING: Node X1:X1:X5:X2:X1:N002 is floating.
WARNING: Node X1:X1:X5:X2:X1:N004 is floating.
WARNING: Node X1:X1:X5:X2:X2:N001 is floating.
WARNING: Node X1:X1:X5:X2:X2:N002 is floating.
WARNING: Node X1:X1:X5:X2:X2:N004 is floating.
WARNING: Node X1:X1:X5:X2:X4:N001 is floating.
WARNING: Node X1:X1:X5:X2:X4:N002 is floating.
WARNING: Node X1:X1:X5:X2:X4:N004 is floating.
WARNING: Node X1:X1:X5:X3:X1:N001 is floating.
WARNING: Node X1:X1:X5:X3:X1:N002 is floating.
WARNING: Node X1:X1:X5:X3:X1:N004 is floating.
WARNING: Node X1:X1:X5:X3:X2:N001 is floating.
WARNING: Node X1:X1:X5:X3:X2:N002 is floating.
WARNING: Node X1:X1:X5:X4:X1:N001 is floating.
WARNING: Node X1:X1:X5:X4:X1:N002 is floating.
WARNING: Node X1:X1:X5:X4:X1:N004 is floating.
WARNING: Node X1:X1:X5:X4:X2:N001 is floating.
WARNING: Node X1:X1:X5:X4:X2:N002 is floating.
WARNING: Node X1:X1:X5:X5:X2:N001 is floating.
WARNING: Node X1:X1:X5:X5:X2:N002 is floating.
WARNING: Node X1:X1:X5:X5:X1:N004 is floating.
WARNING: Node X1:X1:X5:X5:X1:N001 is floating.
WARNING: Node X1:X1:X5:X5:X1:N003 is floating.
WARNING: Node X1:X2:X1:X1:X3:N001 is floating.
WARNING: Node X1:X2:X1:X1:X3:N002 is floating.
WARNING: Node X1:X2:X1:X1:X3:N004 is floating.
WARNING: Node X1:X2:X1:X1:X1:N001 is floating.
WARNING: Node X1:X2:X1:X1:X1:N002 is floating.
WARNING: Node X1:X2:X1:X1:X1:N004 is floating.
WARNING: Node X1:X2:X1:X1:X2:N001 is floating.
WARNING: Node X1:X2:X1:X1:X2:N002 is floating.
WARNING: Node X1:X2:X1:X1:X2:N004 is floating.
WARNING: Node X1:X2:X1:X1:X4:N001 is floating.
WARNING: Node X1:X2:X1:X1:X4:N002 is floating.
WARNING: Node X1:X2:X1:X1:X4:N004 is floating.
WARNING: Node X1:X2:X1:X2:X3:N001 is floating.
WARNING: Node X1:X2:X1:X2:X3:N002 is floating.
WARNING: Node X1:X2:X1:X2:X3:N004 is floating.
WARNING: Node X1:X2:X1:X2:X1:N001 is floating.
WARNING: Node X1:X2:X1:X2:X1:N002 is floating.
WARNING: Node X1:X2:X1:X2:X1:N004 is floating.
WARNING: Node X1:X2:X1:X2:X2:N001 is floating.
WARNING: Node X1:X2:X1:X2:X2:N002 is floating.
WARNING: Node X1:X2:X1:X2:X2:N004 is floating.
WARNING: Node X1:X2:X1:X2:X4:N001 is floating.
WARNING: Node X1:X2:X1:X2:X4:N002 is floating.
WARNING: Node X1:X2:X1:X2:X4:N004 is floating.
WARNING: Node X1:X2:X1:X3:X1:N001 is floating.
WARNING: Node X1:X2:X1:X3:X1:N002 is floating.
WARNING: Node X1:X2:X1:X3:X1:N004 is floating.
WARNING: Node X1:X2:X1:X3:X2:N001 is floating.
WARNING: Node X1:X2:X1:X3:X2:N002 is floating.
WARNING: Node X1:X2:X1:X4:X1:N001 is floating.
WARNING: Node X1:X2:X1:X4:X1:N002 is floating.
WARNING: Node X1:X2:X1:X4:X1:N004 is floating.
WARNING: Node X1:X2:X1:X4:X2:N001 is floating.
WARNING: Node X1:X2:X1:X4:X2:N002 is floating.
WARNING: Node X1:X2:X1:X5:X2:N001 is floating.
WARNING: Node X1:X2:X1:X5:X2:N002 is floating.
WARNING: Node X1:X2:X1:X5:X1:N004 is floating.
WARNING: Node X1:X2:X1:X5:X1:N001 is floating.
WARNING: Node X1:X2:X1:X5:X1:N003 is floating.
WARNING: Node X1:X2:X2:X1:X3:N001 is floating.
WARNING: Node X1:X2:X2:X1:X3:N002 is floating.
WARNING: Node X1:X2:X2:X1:X3:N004 is floating.
WARNING: Node X1:X2:X2:X1:X1:N001 is floating.
WARNING: Node X1:X2:X2:X1:X1:N002 is floating.
WARNING: Node X1:X2:X2:X1:X1:N004 is floating.
WARNING: Node X1:X2:X2:X1:X2:N001 is floating.
WARNING: Node X1:X2:X2:X1:X2:N002 is floating.
WARNING: Node X1:X2:X2:X1:X2:N004 is floating.
WARNING: Node X1:X2:X2:X1:X4:N001 is floating.
WARNING: Node X1:X2:X2:X1:X4:N002 is floating.
WARNING: Node X1:X2:X2:X1:X4:N004 is floating.
WARNING: Node X1:X2:X2:X2:X3:N001 is floating.
WARNING: Node X1:X2:X2:X2:X3:N002 is floating.
WARNING: Node X1:X2:X2:X2:X3:N004 is floating.
WARNING: Node X1:X2:X2:X2:X1:N001 is floating.
WARNING: Node X1:X2:X2:X2:X1:N002 is floating.
WARNING: Node X1:X2:X2:X2:X1:N004 is floating.
WARNING: Node X1:X2:X2:X2:X2:N001 is floating.
WARNING: Node X1:X2:X2:X2:X2:N002 is floating.
WARNING: Node X1:X2:X2:X2:X2:N004 is floating.
WARNING: Node X1:X2:X2:X2:X4:N001 is floating.
WARNING: Node X1:X2:X2:X2:X4:N002 is floating.
WARNING: Node X1:X2:X2:X2:X4:N004 is floating.
WARNING: Node X1:X2:X2:X3:X1:N001 is floating.
WARNING: Node X1:X2:X2:X3:X1:N002 is floating.
WARNING: Node X1:X2:X2:X3:X1:N004 is floating.
WARNING: Node X1:X2:X2:X3:X2:N001 is floating.
WARNING: Node X1:X2:X2:X3:X2:N002 is floating.
WARNING: Node X1:X2:X2:X4:X1:N001 is floating.
WARNING: Node X1:X2:X2:X4:X1:N002 is floating.
WARNING: Node X1:X2:X2:X4:X1:N004 is floating.
WARNING: Node X1:X2:X2:X4:X2:N001 is floating.
WARNING: Node X1:X2:X2:X4:X2:N002 is floating.
WARNING: Node X1:X2:X2:X5:X2:N001 is floating.
WARNING: Node X1:X2:X2:X5:X2:N002 is floating.
WARNING: Node X1:X2:X2:X5:X1:N004 is floating.
WARNING: Node X1:X2:X2:X5:X1:N001 is floating.
WARNING: Node X1:X2:X2:X5:X1:N003 is floating.
WARNING: Node X1:X2:X4:X1:X3:N001 is floating.
WARNING: Node X1:X2:X4:X1:X3:N002 is floating.
WARNING: Node X1:X2:X4:X1:X3:N004 is floating.
WARNING: Node X1:X2:X4:X1:X1:N001 is floating.
WARNING: Node X1:X2:X4:X1:X1:N002 is floating.
WARNING: Node X1:X2:X4:X1:X1:N004 is floating.
WARNING: Node X1:X2:X4:X1:X2:N001 is floating.
WARNING: Node X1:X2:X4:X1:X2:N002 is floating.
WARNING: Node X1:X2:X4:X1:X2:N004 is floating.
WARNING: Node X1:X2:X4:X1:X4:N001 is floating.
WARNING: Node X1:X2:X4:X1:X4:N002 is floating.
WARNING: Node X1:X2:X4:X1:X4:N004 is floating.
WARNING: Node X1:X2:X4:X2:X3:N001 is floating.
WARNING: Node X1:X2:X4:X2:X3:N002 is floating.
WARNING: Node X1:X2:X4:X2:X3:N004 is floating.
WARNING: Node X1:X2:X4:X2:X1:N001 is floating.
WARNING: Node X1:X2:X4:X2:X1:N002 is floating.
WARNING: Node X1:X2:X4:X2:X1:N004 is floating.
WARNING: Node X1:X2:X4:X2:X2:N001 is floating.
WARNING: Node X1:X2:X4:X2:X2:N002 is floating.
WARNING: Node X1:X2:X4:X2:X2:N004 is floating.
WARNING: Node X1:X2:X4:X2:X4:N001 is floating.
WARNING: Node X1:X2:X4:X2:X4:N002 is floating.
WARNING: Node X1:X2:X4:X2:X4:N004 is floating.
WARNING: Node X1:X2:X4:X3:X1:N001 is floating.
WARNING: Node X1:X2:X4:X3:X1:N002 is floating.
WARNING: Node X1:X2:X4:X3:X1:N004 is floating.
WARNING: Node X1:X2:X4:X3:X2:N001 is floating.
WARNING: Node X1:X2:X4:X3:X2:N002 is floating.
WARNING: Node X1:X2:X4:X4:X1:N001 is floating.
WARNING: Node X1:X2:X4:X4:X1:N002 is floating.
WARNING: Node X1:X2:X4:X4:X1:N004 is floating.
WARNING: Node X1:X2:X4:X4:X2:N001 is floating.
WARNING: Node X1:X2:X4:X4:X2:N002 is floating.
WARNING: Node X1:X2:X4:X5:X2:N001 is floating.
WARNING: Node X1:X2:X4:X5:X2:N002 is floating.
WARNING: Node X1:X2:X4:X5:X1:N004 is floating.
WARNING: Node X1:X2:X4:X5:X1:N001 is floating.
WARNING: Node X1:X2:X4:X5:X1:N003 is floating.
WARNING: Node X1:X2:X3:X1:X3:N001 is floating.
WARNING: Node X1:X2:X3:X1:X3:N002 is floating.
WARNING: Node X1:X2:X3:X1:X3:N004 is floating.
WARNING: Node X1:X2:X3:X1:X1:N001 is floating.
WARNING: Node X1:X2:X3:X1:X1:N002 is floating.
WARNING: Node X1:X2:X3:X1:X1:N004 is floating.
WARNING: Node X1:X2:X3:X1:X2:N001 is floating.
WARNING: Node X1:X2:X3:X1:X2:N002 is floating.
WARNING: Node X1:X2:X3:X1:X2:N004 is floating.
WARNING: Node X1:X2:X3:X1:X4:N001 is floating.
WARNING: Node X1:X2:X3:X1:X4:N002 is floating.
WARNING: Node X1:X2:X3:X1:X4:N004 is floating.
WARNING: Node X1:X2:X3:X2:X3:N001 is floating.
WARNING: Node X1:X2:X3:X2:X3:N002 is floating.
WARNING: Node X1:X2:X3:X2:X3:N004 is floating.
WARNING: Node X1:X2:X3:X2:X1:N001 is floating.
WARNING: Node X1:X2:X3:X2:X1:N002 is floating.
WARNING: Node X1:X2:X3:X2:X1:N004 is floating.
WARNING: Node X1:X2:X3:X2:X2:N001 is floating.
WARNING: Node X1:X2:X3:X2:X2:N002 is floating.
WARNING: Node X1:X2:X3:X2:X2:N004 is floating.
WARNING: Node X1:X2:X3:X2:X4:N001 is floating.
WARNING: Node X1:X2:X3:X2:X4:N002 is floating.
WARNING: Node X1:X2:X3:X2:X4:N004 is floating.
WARNING: Node X1:X2:X3:X3:X1:N001 is floating.
WARNING: Node X1:X2:X3:X3:X1:N002 is floating.
WARNING: Node X1:X2:X3:X3:X1:N004 is floating.
WARNING: Node X1:X2:X3:X3:X2:N001 is floating.
WARNING: Node X1:X2:X3:X3:X2:N002 is floating.
WARNING: Node X1:X2:X3:X4:X1:N001 is floating.
WARNING: Node X1:X2:X3:X4:X1:N002 is floating.
WARNING: Node X1:X2:X3:X4:X1:N004 is floating.
WARNING: Node X1:X2:X3:X4:X2:N001 is floating.
WARNING: Node X1:X2:X3:X4:X2:N002 is floating.
WARNING: Node X1:X2:X3:X5:X2:N001 is floating.
WARNING: Node X1:X2:X3:X5:X2:N002 is floating.
WARNING: Node X1:X2:X3:X5:X1:N004 is floating.
WARNING: Node X1:X2:X3:X5:X1:N001 is floating.
WARNING: Node X1:X2:X3:X5:X1:N003 is floating.
WARNING: Node X1:X2:X5:X1:X3:N001 is floating.
WARNING: Node X1:X2:X5:X1:X3:N002 is floating.
WARNING: Node X1:X2:X5:X1:X3:N004 is floating.
WARNING: Node X1:X2:X5:X1:X1:N001 is floating.
WARNING: Node X1:X2:X5:X1:X1:N002 is floating.
WARNING: Node X1:X2:X5:X1:X1:N004 is floating.
WARNING: Node X1:X2:X5:X1:X2:N001 is floating.
WARNING: Node X1:X2:X5:X1:X2:N002 is floating.
WARNING: Node X1:X2:X5:X1:X2:N004 is floating.
WARNING: Node X1:X2:X5:X1:X4:N001 is floating.
WARNING: Node X1:X2:X5:X1:X4:N002 is floating.
WARNING: Node X1:X2:X5:X1:X4:N004 is floating.
WARNING: Node X1:X2:X5:X2:X3:N001 is floating.
WARNING: Node X1:X2:X5:X2:X3:N002 is floating.
WARNING: Node X1:X2:X5:X2:X3:N004 is floating.
WARNING: Node X1:X2:X5:X2:X1:N001 is floating.
WARNING: Node X1:X2:X5:X2:X1:N002 is floating.
WARNING: Node X1:X2:X5:X2:X1:N004 is floating.
WARNING: Node X1:X2:X5:X2:X2:N001 is floating.
WARNING: Node X1:X2:X5:X2:X2:N002 is floating.
WARNING: Node X1:X2:X5:X2:X2:N004 is floating.
WARNING: Node X1:X2:X5:X2:X4:N001 is floating.
WARNING: Node X1:X2:X5:X2:X4:N002 is floating.
WARNING: Node X1:X2:X5:X2:X4:N004 is floating.
WARNING: Node X1:X2:X5:X3:X1:N001 is floating.
WARNING: Node X1:X2:X5:X3:X1:N002 is floating.
WARNING: Node X1:X2:X5:X3:X1:N004 is floating.
WARNING: Node X1:X2:X5:X3:X2:N001 is floating.
WARNING: Node X1:X2:X5:X3:X2:N002 is floating.
WARNING: Node X1:X2:X5:X4:X1:N001 is floating.
WARNING: Node X1:X2:X5:X4:X1:N002 is floating.
WARNING: Node X1:X2:X5:X4:X1:N004 is floating.
WARNING: Node X1:X2:X5:X4:X2:N001 is floating.
WARNING: Node X1:X2:X5:X4:X2:N002 is floating.
WARNING: Node X1:X2:X5:X5:X2:N001 is floating.
WARNING: Node X1:X2:X5:X5:X2:N002 is floating.
WARNING: Node X1:X2:X5:X5:X1:N004 is floating.
WARNING: Node X1:X2:X5:X5:X1:N001 is floating.
WARNING: Node X1:X2:X5:X5:X1:N003 is floating.
WARNING: Node X1:X2:X6:X1:X3:N001 is floating.
WARNING: Node X1:X2:X6:X1:X3:N002 is floating.
WARNING: Node X1:X2:X6:X1:X3:N004 is floating.
WARNING: Node X1:X2:X6:X1:X1:N001 is floating.
WARNING: Node X1:X2:X6:X1:X1:N002 is floating.
WARNING: Node X1:X2:X6:X1:X1:N004 is floating.
WARNING: Node X1:X2:X6:X1:X2:N001 is floating.
WARNING: Node X1:X2:X6:X1:X2:N002 is floating.
WARNING: Node X1:X2:X6:X1:X2:N004 is floating.
WARNING: Node X1:X2:X6:X1:X4:N001 is floating.
WARNING: Node X1:X2:X6:X1:X4:N002 is floating.
WARNING: Node X1:X2:X6:X1:X4:N004 is floating.
WARNING: Node X1:X2:X6:X2:X3:N001 is floating.
WARNING: Node X1:X2:X6:X2:X3:N002 is floating.
WARNING: Node X1:X2:X6:X2:X3:N004 is floating.
WARNING: Node X1:X2:X6:X2:X1:N001 is floating.
WARNING: Node X1:X2:X6:X2:X1:N002 is floating.
WARNING: Node X1:X2:X6:X2:X1:N004 is floating.
WARNING: Node X1:X2:X6:X2:X2:N001 is floating.
WARNING: Node X1:X2:X6:X2:X2:N002 is floating.
WARNING: Node X1:X2:X6:X2:X2:N004 is floating.
WARNING: Node X1:X2:X6:X2:X4:N001 is floating.
WARNING: Node X1:X2:X6:X2:X4:N002 is floating.
WARNING: Node X1:X2:X6:X2:X4:N004 is floating.
WARNING: Node X1:X2:X6:X3:X1:N001 is floating.
WARNING: Node X1:X2:X6:X3:X1:N002 is floating.
WARNING: Node X1:X2:X6:X3:X1:N004 is floating.
WARNING: Node X1:X2:X6:X3:X2:N001 is floating.
WARNING: Node X1:X2:X6:X3:X2:N002 is floating.
WARNING: Node X1:X2:X6:X4:X1:N001 is floating.
WARNING: Node X1:X2:X6:X4:X1:N002 is floating.
WARNING: Node X1:X2:X6:X4:X1:N004 is floating.
WARNING: Node X1:X2:X6:X4:X2:N001 is floating.
WARNING: Node X1:X2:X6:X4:X2:N002 is floating.
WARNING: Node X1:X2:X6:X5:X2:N001 is floating.
WARNING: Node X1:X2:X6:X5:X2:N002 is floating.
WARNING: Node X1:X2:X6:X5:X1:N004 is floating.
WARNING: Node X1:X2:X6:X5:X1:N001 is floating.
WARNING: Node X1:X2:X6:X5:X1:N003 is floating.
WARNING: Node X1:X2:X7:X1:N001 is floating.
WARNING: Node X1:X2:X7:X1:N002 is floating.
WARNING: Node X1:X2:X7:X1:N004 is floating.
WARNING: Node X1:X2:X7:X2:N001 is floating.
WARNING: Node X1:X2:X7:X2:N002 is floating.
WARNING: Node X1:X2:X8:X1:N001 is floating.
WARNING: Node X1:X2:X8:X1:N002 is floating.
WARNING: Node X1:X2:X8:X1:N004 is floating.
WARNING: Node X1:X2:X8:X2:N001 is floating.
WARNING: Node X1:X2:X8:X2:N002 is floating.
WARNING: Node X1:X2:X9:X1:N001 is floating.
WARNING: Node X1:X2:X9:X1:N002 is floating.
WARNING: Node X1:X2:X9:X1:N004 is floating.
WARNING: Node X1:X2:X9:X2:N001 is floating.
WARNING: Node X1:X2:X9:X2:N002 is floating.
WARNING: Node X1:X2:X10:X1:N001 is floating.
WARNING: Node X1:X2:X10:X1:N002 is floating.
WARNING: Node X1:X2:X10:X1:N004 is floating.
WARNING: Node X1:X2:X10:X2:N001 is floating.
WARNING: Node X1:X2:X10:X2:N002 is floating.
WARNING: Node X1:X2:X11:X1:N001 is floating.
WARNING: Node X1:X2:X11:X1:N002 is floating.
WARNING: Node X1:X2:X11:X1:N004 is floating.
WARNING: Node X1:X2:X11:X2:N001 is floating.
WARNING: Node X1:X2:X11:X2:N002 is floating.
WARNING: Node X1:X2:X12:N001 is floating.
WARNING: Node X1:X2:X12:N002 is floating.
WARNING: Node X1:X3:X4:X1:N001 is floating.
WARNING: Node X1:X3:X4:X1:N002 is floating.
WARNING: Node X1:X3:X4:X1:N004 is floating.
WARNING: Node X1:X3:X4:X2:N001 is floating.
WARNING: Node X1:X3:X4:X2:N002 is floating.
WARNING: Node X1:X3:X5:X1:N001 is floating.
WARNING: Node X1:X3:X5:X1:N002 is floating.
WARNING: Node X1:X3:X5:X1:N004 is floating.
WARNING: Node X1:X3:X5:X2:N001 is floating.
WARNING: Node X1:X3:X5:X2:N002 is floating.
WARNING: Node X1:X3:X6:X1:N001 is floating.
WARNING: Node X1:X3:X6:X1:N002 is floating.
WARNING: Node X1:X3:X6:X1:N004 is floating.
WARNING: Node X1:X3:X6:X2:N001 is floating.
WARNING: Node X1:X3:X6:X2:N002 is floating.
WARNING: Node X1:X3:X7:X1:N001 is floating.
WARNING: Node X1:X3:X7:X1:N002 is floating.
WARNING: Node X1:X3:X7:X1:N004 is floating.
WARNING: Node X1:X3:X7:X2:N001 is floating.
WARNING: Node X1:X3:X7:X2:N002 is floating.
WARNING: Node X1:X3:X18:X1:N001 is floating.
WARNING: Node X1:X3:X18:X1:N002 is floating.
WARNING: Node X1:X3:X18:X1:N004 is floating.
WARNING: Node X1:X3:X18:X2:N001 is floating.
WARNING: Node X1:X3:X18:X2:N002 is floating.
WARNING: Node X1:X3:X19:X1:N001 is floating.
WARNING: Node X1:X3:X19:X1:N002 is floating.
WARNING: Node X1:X3:X19:X1:N004 is floating.
WARNING: Node X1:X3:X19:X2:N001 is floating.
WARNING: Node X1:X3:X19:X2:N002 is floating.
WARNING: Node X1:X3:X20:X2:N001 is floating.
WARNING: Node X1:X3:X20:X2:N002 is floating.
WARNING: Node X1:X3:X20:X1:N004 is floating.
WARNING: Node X1:X3:X20:X1:N001 is floating.
WARNING: Node X1:X3:X20:X1:N003 is floating.
WARNING: Node X1:X3:X21:X2:N001 is floating.
WARNING: Node X1:X3:X21:X2:N002 is floating.
WARNING: Node X1:X3:X21:X1:N004 is floating.
WARNING: Node X1:X3:X21:X1:N001 is floating.
WARNING: Node X1:X3:X21:X1:N003 is floating.
WARNING: Node X1:X3:X34:N001 is floating.
WARNING: Node X1:X3:X34:N002 is floating.
WARNING: Node X1:X3:X35:N001 is floating.
WARNING: Node X1:X3:X35:N002 is floating.
WARNING: Node X1:X3:X36:N001 is floating.
WARNING: Node X1:X3:X36:N002 is floating.
WARNING: Node X1:X3:X37:N001 is floating.
WARNING: Node X1:X3:X37:N002 is floating.
WARNING: Node X1:X3:X38:X1:N001 is floating.
WARNING: Node X1:X3:X38:X1:N002 is floating.
WARNING: Node X1:X3:X38:X1:N004 is floating.
WARNING: Node X1:X3:X38:X2:N001 is floating.
WARNING: Node X1:X3:X38:X2:N002 is floating.
WARNING: Node X1:X3:X39:X1:N001 is floating.
WARNING: Node X1:X3:X39:X1:N002 is floating.
WARNING: Node X1:X3:X39:X1:N004 is floating.
WARNING: Node X1:X3:X39:X2:N001 is floating.
WARNING: Node X1:X3:X39:X2:N002 is floating.
WARNING: Node X1:X3:X42:X2:N001 is floating.
WARNING: Node X1:X3:X42:X2:N002 is floating.
WARNING: Node X1:X3:X42:X1:N004 is floating.
WARNING: Node X1:X3:X42:X1:N001 is floating.
WARNING: Node X1:X3:X42:X1:N003 is floating.
WARNING: Node X1:X3:X40:X1:N001 is floating.
WARNING: Node X1:X3:X40:X1:N002 is floating.
WARNING: Node X1:X3:X40:X1:N004 is floating.
WARNING: Node X1:X3:X40:X2:N001 is floating.
WARNING: Node X1:X3:X40:X2:N002 is floating.
WARNING: Node X1:X3:X41:X1:N001 is floating.
WARNING: Node X1:X3:X41:X1:N002 is floating.
WARNING: Node X1:X3:X41:X1:N004 is floating.
WARNING: Node X1:X3:X41:X2:N001 is floating.
WARNING: Node X1:X3:X41:X2:N002 is floating.
WARNING: Node X1:X3:X44:X1:N001 is floating.
WARNING: Node X1:X3:X44:X1:N002 is floating.
WARNING: Node X1:X3:X44:X1:N004 is floating.
WARNING: Node X1:X3:X44:X2:N001 is floating.
WARNING: Node X1:X3:X44:X2:N002 is floating.
WARNING: Node X1:X3:X43:X2:N001 is floating.
WARNING: Node X1:X3:X43:X2:N002 is floating.
WARNING: Node X1:X3:X43:X1:N004 is floating.
WARNING: Node X1:X3:X43:X1:N001 is floating.
WARNING: Node X1:X3:X43:X1:N003 is floating.
WARNING: Node X1:X3:X17:X1:N001 is floating.
WARNING: Node X1:X3:X17:X1:N002 is floating.
WARNING: Node X1:X3:X17:X1:N004 is floating.
WARNING: Node X1:X3:X17:X2:N001 is floating.
WARNING: Node X1:X3:X17:X2:N002 is floating.
WARNING: Node X1:X3:X45:X1:N001 is floating.
WARNING: Node X1:X3:X45:X1:N002 is floating.
WARNING: Node X1:X3:X45:X1:N004 is floating.
WARNING: Node X1:X3:X45:X2:N001 is floating.
WARNING: Node X1:X3:X45:X2:N002 is floating.
WARNING: Node X1:X3:X46:X1:N001 is floating.
WARNING: Node X1:X3:X46:X1:N002 is floating.
WARNING: Node X1:X3:X46:X1:N004 is floating.
WARNING: Node X1:X3:X46:X2:N001 is floating.
WARNING: Node X1:X3:X46:X2:N002 is floating.
WARNING: Node X1:X3:X3:X1:N001 is floating.
WARNING: Node X1:X3:X3:X1:N002 is floating.
WARNING: Node X1:X3:X3:X1:N004 is floating.
WARNING: Node X1:X3:X3:X2:N001 is floating.
WARNING: Node X1:X3:X3:X2:N002 is floating.
WARNING: Node X1:X3:X1:X2:N001 is floating.
WARNING: Node X1:X3:X1:X2:N002 is floating.
WARNING: Node X1:X3:X1:X1:N004 is floating.
WARNING: Node X1:X3:X1:X1:N001 is floating.
WARNING: Node X1:X3:X1:X1:N003 is floating.
WARNING: Node X1:X3:X9:X2:N001 is floating.
WARNING: Node X1:X3:X9:X2:N002 is floating.
WARNING: Node X1:X3:X9:X1:N004 is floating.
WARNING: Node X1:X3:X9:X1:N001 is floating.
WARNING: Node X1:X3:X9:X1:N003 is floating.
WARNING: Node X1:X3:X10:X2:N001 is floating.
WARNING: Node X1:X3:X10:X2:N002 is floating.
WARNING: Node X1:X3:X10:X1:N004 is floating.
WARNING: Node X1:X3:X10:X1:N001 is floating.
WARNING: Node X1:X3:X10:X1:N003 is floating.
WARNING: Node X1:X3:X8:X2:N001 is floating.
WARNING: Node X1:X3:X8:X2:N002 is floating.
WARNING: Node X1:X3:X8:X1:N004 is floating.
WARNING: Node X1:X3:X8:X1:N001 is floating.
WARNING: Node X1:X3:X8:X1:N003 is floating.
WARNING: Node X1:X3:X11:N001 is floating.
WARNING: Node X1:X3:X11:N002 is floating.
WARNING: Node X1:X3:X12:X3:N001 is floating.
WARNING: Node X1:X3:X12:X3:N002 is floating.
WARNING: Node X1:X3:X12:X3:N004 is floating.
WARNING: Node X1:X3:X12:X1:N001 is floating.
WARNING: Node X1:X3:X12:X1:N002 is floating.
WARNING: Node X1:X3:X12:X1:N004 is floating.
WARNING: Node X1:X3:X12:X2:N001 is floating.
WARNING: Node X1:X3:X12:X2:N002 is floating.
WARNING: Node X1:X3:X12:X2:N004 is floating.
WARNING: Node X1:X3:X12:X4:N001 is floating.
WARNING: Node X1:X3:X12:X4:N002 is floating.
WARNING: Node X1:X3:X12:X4:N004 is floating.
WARNING: Node X1:X3:X12:X5:N001 is floating.
WARNING: Node X1:X3:X12:X5:N002 is floating.
WARNING: Node X1:X3:X13:X1:N001 is floating.
WARNING: Node X1:X3:X13:X1:N002 is floating.
WARNING: Node X1:X3:X13:X1:N004 is floating.
WARNING: Node X1:X3:X13:X2:N001 is floating.
WARNING: Node X1:X3:X13:X2:N002 is floating.
WARNING: Node X1:X3:X14:X1:N001 is floating.
WARNING: Node X1:X3:X14:X1:N002 is floating.
WARNING: Node X1:X3:X14:X1:N004 is floating.
WARNING: Node X1:X3:X14:X2:N001 is floating.
WARNING: Node X1:X3:X14:X2:N002 is floating.
WARNING: Node X1:X3:X15:X1:N001 is floating.
WARNING: Node X1:X3:X15:X1:N002 is floating.
WARNING: Node X1:X3:X15:X1:N004 is floating.
WARNING: Node X1:X3:X15:X2:N001 is floating.
WARNING: Node X1:X3:X15:X2:N002 is floating.
WARNING: Node X1:X3:X16:N004 is floating.
WARNING: Node X1:X3:X16:N001 is floating.
WARNING: Node X1:X3:X16:N003 is floating.
WARNING: Node X1:X3:X22:N001 is floating.
WARNING: Node X1:X3:X22:N002 is floating.
WARNING: Node X1:X3:X2:X2:N001 is floating.
WARNING: Node X1:X3:X2:X2:N002 is floating.
WARNING: Node X1:X3:X2:X1:N004 is floating.
WARNING: Node X1:X3:X2:X1:N001 is floating.
WARNING: Node X1:X3:X2:X1:N003 is floating.
WARNING: Node X1:X4:X1:N001 is floating.
WARNING: Node X1:X4:X1:N002 is floating.
WARNING: Node X1:X4:X2:N001 is floating.
WARNING: Node X1:X4:X2:N002 is floating.
WARNING: Node X1:X4:X3:N001 is floating.
WARNING: Node X1:X4:X3:N002 is floating.
WARNING: Node X1:X4:X4:X1:N001 is floating.
WARNING: Node X1:X4:X4:X1:N002 is floating.
WARNING: Node X1:X4:X4:X1:N004 is floating.
WARNING: Node X1:X4:X4:X2:N001 is floating.
WARNING: Node X1:X4:X4:X2:N002 is floating.
WARNING: Node X1:X4:X5:X1:N001 is floating.
WARNING: Node X1:X4:X5:X1:N002 is floating.
WARNING: Node X1:X4:X5:X1:N004 is floating.
WARNING: Node X1:X4:X5:X2:N001 is floating.
WARNING: Node X1:X4:X5:X2:N002 is floating.
WARNING: Node X1:X4:X6:X1:N001 is floating.
WARNING: Node X1:X4:X6:X1:N002 is floating.
WARNING: Node X1:X4:X6:X1:N004 is floating.
WARNING: Node X1:X4:X6:X2:N001 is floating.
WARNING: Node X1:X4:X6:X2:N002 is floating.
WARNING: Node X1:X4:X7:X2:N001 is floating.
WARNING: Node X1:X4:X7:X2:N002 is floating.
WARNING: Node X1:X4:X7:X1:N004 is floating.
WARNING: Node X1:X4:X7:X1:N001 is floating.
WARNING: Node X1:X4:X7:X1:N003 is floating.
WARNING: Node X1:X4:X8:X2:N001 is floating.
WARNING: Node X1:X4:X8:X2:N002 is floating.
WARNING: Node X1:X4:X8:X1:N004 is floating.
WARNING: Node X1:X4:X8:X1:N001 is floating.
WARNING: Node X1:X4:X8:X1:N003 is floating.
WARNING: Node X1:X4:X9:X1:N001 is floating.
WARNING: Node X1:X4:X9:X1:N002 is floating.
WARNING: Node X1:X4:X9:X1:N004 is floating.
WARNING: Node X1:X4:X9:X2:N001 is floating.
WARNING: Node X1:X4:X9:X2:N002 is floating.
WARNING: Node X1:X4:X11:X1:N001 is floating.
WARNING: Node X1:X4:X11:X1:N002 is floating.
WARNING: Node X1:X4:X11:X1:N004 is floating.
WARNING: Node X1:X4:X11:X2:N001 is floating.
WARNING: Node X1:X4:X11:X2:N002 is floating.
WARNING: Node X1:X4:X12:N001 is floating.
WARNING: Node X1:X4:X12:N002 is floating.
WARNING: Node X1:X4:X13:N001 is floating.
WARNING: Node X1:X4:X13:N002 is floating.
WARNING: Node X1:X4:X17:X2:N001 is floating.
WARNING: Node X1:X4:X17:X2:N002 is floating.
WARNING: Node X1:X4:X17:X1:N004 is floating.
WARNING: Node X1:X4:X17:X1:N001 is floating.
WARNING: Node X1:X4:X17:X1:N003 is floating.
WARNING: Node X1:X4:X18:X3:N001 is floating.
WARNING: Node X1:X4:X18:X3:N002 is floating.
WARNING: Node X1:X4:X18:X3:N004 is floating.
WARNING: Node X1:X4:X18:X1:N001 is floating.
WARNING: Node X1:X4:X18:X1:N002 is floating.
WARNING: Node X1:X4:X18:X1:N004 is floating.
WARNING: Node X1:X4:X18:X2:N001 is floating.
WARNING: Node X1:X4:X18:X2:N002 is floating.
WARNING: Node X1:X4:X18:X2:N004 is floating.
WARNING: Node X1:X4:X18:X4:N001 is floating.
WARNING: Node X1:X4:X18:X4:N002 is floating.
WARNING: Node X1:X4:X18:X4:N004 is floating.
WARNING: Node X1:X4:X19:X1:N001 is floating.
WARNING: Node X1:X4:X19:X1:N002 is floating.
WARNING: Node X1:X4:X19:X1:N004 is floating.
WARNING: Node X1:X4:X19:X2:N001 is floating.
WARNING: Node X1:X4:X19:X2:N002 is floating.
WARNING: Node X1:X4:X20:X1:N001 is floating.
WARNING: Node X1:X4:X20:X1:N002 is floating.
WARNING: Node X1:X4:X20:X1:N004 is floating.
WARNING: Node X1:X4:X20:X2:N001 is floating.
WARNING: Node X1:X4:X20:X2:N002 is floating.
WARNING: Node X1:X4:X21:X1:N001 is floating.
WARNING: Node X1:X4:X21:X1:N002 is floating.
WARNING: Node X1:X4:X21:X1:N004 is floating.
WARNING: Node X1:X4:X21:X2:N001 is floating.
WARNING: Node X1:X4:X21:X2:N002 is floating.
WARNING: Node X1:X4:X22:N001 is floating.
WARNING: Node X1:X4:X22:N002 is floating.
WARNING: Node X1:X4:X23:X2:N001 is floating.
WARNING: Node X1:X4:X23:X2:N002 is floating.
WARNING: Node X1:X4:X23:X1:N004 is floating.
WARNING: Node X1:X4:X23:X1:N001 is floating.
WARNING: Node X1:X4:X23:X1:N003 is floating.
WARNING: Node X1:X4:X24:X1:N001 is floating.
WARNING: Node X1:X4:X24:X1:N002 is floating.
WARNING: Node X1:X4:X24:X1:N004 is floating.
WARNING: Node X1:X4:X24:X2:N001 is floating.
WARNING: Node X1:X4:X24:X2:N002 is floating.
WARNING: Node X1:X4:X25:X2:N001 is floating.
WARNING: Node X1:X4:X25:X2:N002 is floating.
WARNING: Node X1:X4:X25:X1:N004 is floating.
WARNING: Node X1:X4:X25:X1:N001 is floating.
WARNING: Node X1:X4:X25:X1:N003 is floating.
WARNING: Node X1:X4:X26:N001 is floating.
WARNING: Node X1:X4:X26:N002 is floating.
WARNING: Node X1:X4:X10:X1:N001 is floating.
WARNING: Node X1:X4:X10:X1:N002 is floating.
WARNING: Node X1:X4:X10:X1:N004 is floating.
WARNING: Node X1:X4:X10:X2:N001 is floating.
WARNING: Node X1:X4:X10:X2:N002 is floating.
WARNING: Node X1:X4:X14:N001 is floating.
WARNING: Node X1:X4:X14:N002 is floating.
WARNING: Node X1:X4:X15:X1:N001 is floating.
WARNING: Node X1:X4:X15:X1:N002 is floating.
WARNING: Node X1:X4:X15:X1:N004 is floating.
WARNING: Node X1:X4:X15:X2:N001 is floating.
WARNING: Node X1:X4:X15:X2:N002 is floating.
WARNING: Node X1:X4:X16:N001 is floating.
WARNING: Node X1:X4:X16:N002 is floating.
WARNING: Node X1:X4:X27:X1:N001 is floating.
WARNING: Node X1:X4:X27:X1:N002 is floating.
WARNING: Node X1:X4:X27:X1:N004 is floating.
WARNING: Node X1:X4:X27:X2:N001 is floating.
WARNING: Node X1:X4:X27:X2:N002 is floating.
WARNING: Node X1:X4:X28:X2:N001 is floating.
WARNING: Node X1:X4:X28:X2:N002 is floating.
WARNING: Node X1:X4:X28:X1:N004 is floating.
WARNING: Node X1:X4:X28:X1:N001 is floating.
WARNING: Node X1:X4:X28:X1:N003 is floating.
WARNING: Node X1:X4:X29:N001 is floating.
WARNING: Node X1:X4:X29:N002 is floating.

Instance "m:x1:x1:x1:x1:x3:2": Length shorter than recommended for a level 1 MOSFET.
Instance "m:x1:x1:x1:x1:x3:2": Width narrower than recommended for a level 1 MOSFET.
Instance "m:x1:x1:x1:x1:x3:3": Length shorter than recommended for a level 1 MOSFET.
Instance "m:x1:x1:x1:x1:x3:3": Width narrower than recommended for a level 1 MOSFET.
Instance "m:x1:x1:x1:x1:x3:1": Length shorter than recommended for a level 1 MOSFET.
Instance "m:x1:x1:x1:x1:x3:1": Width narrower than recommended for a level 1 MOSFET.
Instance "m:x1:x1:x1:x1:x3:4": Length shorter than recommended for a level 1 MOSFET.
Instance "m:x1:x1:x1:x1:x3:4": Width narrower than recommended for a level 1 MOSFET.
Instance "m:x1:x1:x1:x1:x1:2": Length shorter than recommended for a level 1 MOSFET.
Instance "m:x1:x1:x1:x1:x1:2": Width narrower than recommended for a level 1 MOSFET.
Instance "m:x1:x1:x1:x1:x1:3": Length shorter than recommended for a level 1 MOSFET.
Instance "m:x1:x1:x1:x1:x1:3": Width narrower than recommended for a level 1 MOSFET.
Instance "m:x1:x1:x1:x1:x1:1": Length shorter than recommended for a level 1 MOSFET.
Instance "m:x1:x1:x1:x1:x1:1": Width narrower than recommended for a level 1 MOSFET.
Instance "m:x1:x1:x1:x1:x1:4": Length shorter than recommended for a level 1 MOSFET.
Instance "m:x1:x1:x1:x1:x1:4": Width narrower than recommended for a level 1 MOSFET.
Instance "m:x1:x1:x1:x1:x2:2": Length shorter than recommended for a level 1 MOSFET.
Instance "m:x1:x1:x1:x1:x2:2": Width narrower than recommended for a level 1 MOSFET.
Instance "m:x1:x1:x1:x1:x2:3": Length shorter than recommended for a level 1 MOSFET.
Instance "m:x1:x1:x1:x1:x2:3": Width narrower than recommended for a level 1 MOSFET.
Instance "m:x1:x1:x1:x1:x2:1": Length shorter than recommended for a level 1 MOSFET.
Instance "m:x1:x1:x1:x1:x2:1": Width narrower than recommended for a level 1 MOSFET.
Instance "m:x1:x1:x1:x1:x2:4": Length shorter than recommended for a level 1 MOSFET.
Instance "m:x1:x1:x1:x1:x2:4": Width narrower than recommended for a level 1 MOSFET.
Instance "m:x1:x1:x1:x1:x4:2": Length shorter than recommended for a level 1 MOSFET.
Instance "m:x1:x1:x1:x1:x4:2": Width narrower than recommended for a level 1 MOSFET.
Instance "m:x1:x1:x1:x1:x4:3": Length shorter than recommended for a level 1 MOSFET.
Instance "m:x1:x1:x1:x1:x4:3": Width narrower than recommended for a level 1 MOSFET.
Instance "m:x1:x1:x1:x1:x4:1": Length shorter than recommended for a level 1 MOSFET.
Instance "m:x1:x1:x1:x1:x4:1": Width narrower than recommended for a level 1 MOSFET.
Instance "m:x1:x1:x1:x1:x4:4": Length shorter than recommended for a level 1 MOSFET.
Instance "m:x1:x1:x1:x1:x4:4": Width narrower than recommended for a level 1 MOSFET.
Instance "m:x1:x1:x1:x2:x3:2": Length shorter than recommended for a level 1 MOSFET.
Instance "m:x1:x1:x1:x2:x3:2": Width narrower than recommended for a level 1 MOSFET.
Instance "m:x1:x1:x1:x2:x3:3": Length shorter than recommended for a level 1 MOSFET.
Instance "m:x1:x1:x1:x2:x3:3": Width narrower than recommended for a level 1 MOSFET.
Instance "m:x1:x1:x1:x2:x3:1": Length shorter than recommended for a level 1 MOSFET.
Instance "m:x1:x1:x1:x2:x3:1": Width narrower than recommended for a level 1 MOSFET.
Instance "m:x1:x1:x1:x2:x3:4": Length shorter than recommended for a level 1 MOSFET.
Instance "m:x1:x1:x1:x2:x3:4": Width narrower than recommended for a level 1 MOSFET.
Instance "m:x1:x1:x1:x2:x1:2": Length shorter than recommended for a level 1 MOSFET.
Instance "m:x1:x1:x1:x2:x1:2": Width narrower than recommended for a level 1 MOSFET.
Instance "m:x1:x1:x1:x2:x1:3": Length shorter than recommended for a level 1 MOSFET.
Instance "m:x1:x1:x1:x2:x1:3": Width narrower than recommended for a level 1 MOSFET.
Instance "m:x1:x1:x1:x2:x1:1": Length shorter than recommended for a level 1 MOSFET.
Instance "m:x1:x1:x1:x2:x1:1": Width narrower than recommended for a level 1 MOSFET.
Instance "m:x1:x1:x1:x2:x1:4": Length shorter than recommended for a level 1 MOSFET.
Instance "m:x1:x1:x1:x2:x1:4": Width narrower than recommended for a level 1 MOSFET.
Instance "m:x1:x1:x1:x2:x2:2": Length shorter than recommended for a level 1 MOSFET.
Instance "m:x1:x1:x1:x2:x2:2": Width narrower than recommended for a level 1 MOSFET.
Instance "m:x1:x1:x1:x2:x2:3": Length shorter than recommended for a level 1 MOSFET.
Instance "m:x1:x1:x1:x2:x2:3": Width narrower than recommended for a level 1 MOSFET.
Instance "m:x1:x1:x1:x2:x2:1": Length shorter than recommended for a level 1 MOSFET.
Instance "m:x1:x1:x1:x2:x2:1": Width narrower than recommended for a level 1 MOSFET.
Instance "m:x1:x1:x1:x2:x2:4": Length shorter than recommended for a level 1 MOSFET.
Instance "m:x1:x1:x1:x2:x2:4": Width narrower than recommended for a level 1 MOSFET.
Instance "m:x1:x1:x1:x2:x4:2": Length shorter than recommended for a level 1 MOSFET.
Instance "m:x1:x1:x1:x2:x4:2": Width narrower than recommended for a level 1 MOSFET.
Instance "m:x1:x1:x1:x2:x4:3": Length shorter than recommended for a level 1 MOSFET.
Instance "m:x1:x1:x1:x2:x4:3": Width narrower than recommended for a level 1 MOSFET.
Instance "m:x1:x1:x1:x2:x4:1": Length shorter than recommended for a level 1 MOSFET.
Instance "m:x1:x1:x1:x2:x4:1": Width narrower than recommended for a level 1 MOSFET.
Instance "m:x1:x1:x1:x2:x4:4": Length shorter than recommended for a level 1 MOSFET.
Instance "m:x1:x1:x1:x2:x4:4": Width narrower than recommended for a level 1 MOSFET.
Instance "m:x1:x1:x1:x3:x1:2": Length shorter than recommended for a level 1 MOSFET.
Instance "m:x1:x1:x1:x3:x1:2": Width narrower than recommended for a level 1 MOSFET.
Instance "m:x1:x1:x1:x3:x1:3": Length shorter than recommended for a level 1 MOSFET.
Instance "m:x1:x1:x1:x3:x1:3": Width narrower than recommended for a level 1 MOSFET.
Instance "m:x1:x1:x1:x3:x1:1": Length shorter than recommended for a level 1 MOSFET.
Instance "m:x1:x1:x1:x3:x1:1": Width narrower than recommended for a level 1 MOSFET.
Instance "m:x1:x1:x1:x3:x1:4": Length shorter than recommended for a level 1 MOSFET.
Instance "m:x1:x1:x1:x3:x1:4": Width narrower than recommended for a level 1 MOSFET.
Instance "m:x1:x1:x1:x3:x2:2": Length shorter than recommended for a level 1 MOSFET.
Instance "m:x1:x1:x1:x3:x2:2": Width narrower than recommended for a level 1 MOSFET.
Instance "m:x1:x1:x1:x3:x2:1": Length shorter than recommended for a level 1 MOSFET.
Instance "m:x1:x1:x1:x3:x2:1": Width narrower than recommended for a level 1 MOSFET.
Instance "m:x1:x1:x1:x4:x1:2": Length shorter than recommended for a level 1 MOSFET.
Instance "m:x1:x1:x1:x4:x1:2": Width narrower than recommended for a level 1 MOSFET.
Instance "m:x1:x1:x1:x4:x1:3": Length shorter than recommended for a level 1 MOSFET.
Instance "m:x1:x1:x1:x4:x1:3": Width narrower than recommended for a level 1 MOSFET.
Instance "m:x1:x1:x1:x4:x1:1": Length shorter than recommended for a level 1 MOSFET.
Instance "m:x1:x1:x1:x4:x1:1": Width narrower than recommended for a level 1 MOSFET.
Instance "m:x1:x1:x1:x4:x1:4": Length shorter than recommended for a level 1 MOSFET.
Instance "m:x1:x1:x1:x4:x1:4": Width narrower than recommended for a level 1 MOSFET.
Instance "m:x1:x1:x1:x4:x2:2": Length shorter than recommended for a level 1 MOSFET.
Instance "m:x1:x1:x1:x4:x2:2": Width narrower than recommended for a level 1 MOSFET.
Instance "m:x1:x1:x1:x4:x2:1": Length shorter than recommended for a level 1 MOSFET.
Instance "m:x1:x1:x1:x4:x2:1": Width narrower than recommended for a level 1 MOSFET.
Instance "m:x1:x1:x1:x5:x2:2": Length shorter than recommended for a level 1 MOSFET.
Instance "m:x1:x1:x1:x5:x2:2": Width narrower than recommended for a level 1 MOSFET.
Instance "m:x1:x1:x1:x5:x2:1": Length shorter than recommended for a level 1 MOSFET.
Instance "m:x1:x1:x1:x5:x2:1": Width narrower than recommended for a level 1 MOSFET.
Instance "m:x1:x1:x1:x5:x1:4": Length shorter than recommended for a level 1 MOSFET.
Instance "m:x1:x1:x1:x5:x1:4": Width narrower than recommended for a level 1 MOSFET.
Instance "m:x1:x1:x1:x5:x1:7": Length shorter than recommended for a level 1 MOSFET.
Instance "m:x1:x1:x1:x5:x1:7": Width narrower than recommended for a level 1 MOSFET.
Instance "m:x1:x1:x1:x5:x1:5": Length shorter than recommended for a level 1 MOSFET.
Instance "m:x1:x1:x1:x5:x1:5": Width narrower than recommended for a level 1 MOSFET.
Instance "m:x1:x1:x1:x5:x1:6": Length shorter than recommended for a level 1 MOSFET.
Instance "m:x1:x1:x1:x5:x1:6": Width narrower than recommended for a level 1 MOSFET.
Instance "m:x1:x1:x2:x1:x3:2": Length shorter than recommended for a level 1 MOSFET.
Instance "m:x1:x1:x2:x1:x3:2": Width narrower than recommended for a level 1 MOSFET.
Instance "m:x1:x1:x2:x1:x3:3": Length shorter than recommended for a level 1 MOSFET.
Instance "m:x1:x1:x2:x1:x3:3": Width narrower than recommended for a level 1 MOSFET.
Instance "m:x1:x1:x2:x1:x3:1": Length shorter than recommended for a level 1 MOSFET.
Instance "m:x1:x1:x2:x1:x3:1": Width narrower than recommended for a level 1 MOSFET.
Instance "m:x1:x1:x2:x1:x3:4": Length shorter than recommended for a level 1 MOSFET.
Instance "m:x1:x1:x2:x1:x3:4": Width narrower than recommended for a level 1 MOSFET.
Instance "m:x1:x1:x2:x1:x1:2": Length shorter than recommended for a level 1 MOSFET.
Instance "m:x1:x1:x2:x1:x1:2": Width narrower than recommended for a level 1 MOSFET.
Instance "m:x1:x1:x2:x1:x1:3": Length shorter than recommended for a level 1 MOSFET.
Instance "m:x1:x1:x2:x1:x1:3": Width narrower than recommended for a level 1 MOSFET.
Instance "m:x1:x1:x2:x1:x1:1": Length shorter than recommended for a level 1 MOSFET.
Instance "m:x1:x1:x2:x1:x1:1": Width narrower than recommended for a level 1 MOSFET.
Instance "m:x1:x1:x2:x1:x1:4": Length shorter than recommended for a level 1 MOSFET.
Instance "m:x1:x1:x2:x1:x1:4": Width narrower than recommended for a level 1 MOSFET.
Instance "m:x1:x1:x2:x1:x2:2": Length shorter than recommended for a level 1 MOSFET.
Instance "m:x1:x1:x2:x1:x2:2": Width narrower than recommended for a level 1 MOSFET.
Instance "m:x1:x1:x2:x1:x2:3": Length shorter than recommended for a level 1 MOSFET.
Instance "m:x1:x1:x2:x1:x2:3": Width narrower than recommended for a level 1 MOSFET.
Instance "m:x1:x1:x2:x1:x2:1": Length shorter than recommended for a level 1 MOSFET.
Instance "m:x1:x1:x2:x1:x2:1": Width narrower than recommended for a level 1 MOSFET.
Instance "m:x1:x1:x2:x1:x2:4": Length shorter than recommended for a level 1 MOSFET.
Instance "m:x1:x1:x2:x1:x2:4": Width narrower than recommended for a level 1 MOSFET.
Instance "m:x1:x1:x2:x1:x4:2": Length shorter than recommended for a level 1 MOSFET.
Instance "m:x1:x1:x2:x1:x4:2": Width narrower than recommended for a level 1 MOSFET.
Instance "m:x1:x1:x2:x1:x4:3": Length shorter than recommended for a level 1 MOSFET.
Instance "m:x1:x1:x2:x1:x4:3": Width narrower than recommended for a level 1 MOSFET.
Instance "m:x1:x1:x2:x1:x4:1": Length shorter than recommended for a level 1 MOSFET.
Instance "m:x1:x1:x2:x1:x4:1": Width narrower than recommended for a level 1 MOSFET.
Instance "m:x1:x1:x2:x1:x4:4": Length shorter than recommended for a level 1 MOSFET.
Instance "m:x1:x1:x2:x1:x4:4": Width narrower than recommended for a level 1 MOSFET.
Instance "m:x1:x1:x2:x2:x3:2": Length shorter than recommended for a level 1 MOSFET.
Instance "m:x1:x1:x2:x2:x3:2": Width narrower than recommended for a level 1 MOSFET.
Instance "m:x1:x1:x2:x2:x3:3": Length shorter than recommended for a level 1 MOSFET.
Instance "m:x1:x1:x2:x2:x3:3": Width narrower than recommended for a level 1 MOSFET.
Instance "m:x1:x1:x2:x2:x3:1": Length shorter than recommended for a level 1 MOSFET.
Instance "m:x1:x1:x2:x2:x3:1": Width narrower than recommended for a level 1 MOSFET.
Instance "m:x1:x1:x2:x2:x3:4": Length shorter than recommended for a level 1 MOSFET.
Instance "m:x1:x1:x2:x2:x3:4": Width narrower than recommended for a level 1 MOSFET.
Instance "m:x1:x1:x2:x2:x1:2": Length shorter than recommended for a level 1 MOSFET.
Instance "m:x1:x1:x2:x2:x1:2": Width narrower than recommended for a level 1 MOSFET.
Instance "m:x1:x1:x2:x2:x1:3": Length shorter than recommended for a level 1 MOSFET.
Instance "m:x1:x1:x2:x2:x1:3": Width narrower than recommended for a level 1 MOSFET.
Instance "m:x1:x1:x2:x2:x1:1": Length shorter than recommended for a level 1 MOSFET.
Instance "m:x1:x1:x2:x2:x1:1": Width narrower than recommended for a level 1 MOSFET.
Instance "m:x1:x1:x2:x2:x1:4": Length shorter than recommended for a level 1 MOSFET.
Instance "m:x1:x1:x2:x2:x1:4": Width narrower than recommended for a level 1 MOSFET.
Instance "m:x1:x1:x2:x2:x2:2": Length shorter than recommended for a level 1 MOSFET.
Instance "m:x1:x1:x2:x2:x2:2": Width narrower than recommended for a level 1 MOSFET.
Instance "m:x1:x1:x2:x2:x2:3": Length shorter than recommended for a level 1 MOSFET.
Instance "m:x1:x1:x2:x2:x2:3": Width narrower than recommended for a level 1 MOSFET.
Instance "m:x1:x1:x2:x2:x2:1": Length shorter than recommended for a level 1 MOSFET.
Instance "m:x1:x1:x2:x2:x2:1": Width narrower than recommended for a level 1 MOSFET.
Instance "m:x1:x1:x2:x2:x2:4": Length shorter than recommended for a level 1 MOSFET.
Instance "m:x1:x1:x2:x2:x2:4": Width narrower than recommended for a level 1 MOSFET.
Instance "m:x1:x1:x2:x2:x4:2": Length shorter than recommended for a level 1 MOSFET.
Instance "m:x1:x1:x2:x2:x4:2": Width narrower than recommended for a level 1 MOSFET.
Instance "m:x1:x1:x2:x2:x4:3": Length shorter than recommended for a level 1 MOSFET.
Instance "m:x1:x1:x2:x2:x4:3": Width narrower than recommended for a level 1 MOSFET.
Instance "m:x1:x1:x2:x2:x4:1": Length shorter than recommended for a level 1 MOSFET.
Instance "m:x1:x1:x2:x2:x4:1": Width narrower than recommended for a level 1 MOSFET.
Instance "m:x1:x1:x2:x2:x4:4": Length shorter than recommended for a level 1 MOSFET.
Instance "m:x1:x1:x2:x2:x4:4": Width narrower than recommended for a level 1 MOSFET.
Instance "m:x1:x1:x2:x3:x1:2": Length shorter than recommended for a level 1 MOSFET.
Instance "m:x1:x1:x2:x3:x1:2": Width narrower than recommended for a level 1 MOSFET.
Instance "m:x1:x1:x2:x3:x1:3": Length shorter than recommended for a level 1 MOSFET.
Instance "m:x1:x1:x2:x3:x1:3": Width narrower than recommended for a level 1 MOSFET.
Instance "m:x1:x1:x2:x3:x1:1": Length shorter than recommended for a level 1 MOSFET.
Instance "m:x1:x1:x2:x3:x1:1": Width narrower than recommended for a level 1 MOSFET.
Instance "m:x1:x1:x2:x3:x1:4": Length shorter than recommended for a level 1 MOSFET.
Instance "m:x1:x1:x2:x3:x1:4": Width narrower than recommended for a level 1 MOSFET.
Instance "m:x1:x1:x2:x3:x2:2": Length shorter than recommended for a level 1 MOSFET.
Instance "m:x1:x1:x2:x3:x2:2": Width narrower than recommended for a level 1 MOSFET.
Instance "m:x1:x1:x2:x3:x2:1": Length shorter than recommended for a level 1 MOSFET.
Instance "m:x1:x1:x2:x3:x2:1": Width narrower than recommended for a level 1 MOSFET.
Instance "m:x1:x1:x2:x4:x1:2": Length shorter than recommended for a level 1 MOSFET.
Instance "m:x1:x1:x2:x4:x1:2": Width narrower than recommended for a level 1 MOSFET.
Instance "m:x1:x1:x2:x4:x1:3": Length shorter than recommended for a level 1 MOSFET.
Instance "m:x1:x1:x2:x4:x1:3": Width narrower than recommended for a level 1 MOSFET.
Instance "m:x1:x1:x2:x4:x1:1": Length shorter than recommended for a level 1 MOSFET.
Instance "m:x1:x1:x2:x4:x1:1": Width narrower than recommended for a level 1 MOSFET.
Instance "m:x1:x1:x2:x4:x1:4": Length shorter than recommended for a level 1 MOSFET.
Instance "m:x1:x1:x2:x4:x1:4": Width narrower than recommended for a level 1 MOSFET.
Instance "m:x1:x1:x2:x4:x2:2": Length shorter than recommended for a level 1 MOSFET.
Instance "m:x1:x1:x2:x4:x2:2": Width narrower than recommended for a level 1 MOSFET.
Instance "m:x1:x1:x2:x4:x2:1": Length shorter than recommended for a level 1 MOSFET.
Instance "m:x1:x1:x2:x4:x2:1": Width narrower than recommended for a level 1 MOSFET.
Instance "m:x1:x1:x2:x5:x2:2": Length shorter than recommended for a level 1 MOSFET.
Instance "m:x1:x1:x2:x5:x2:2": Width narrower than recommended for a level 1 MOSFET.
Instance "m:x1:x1:x2:x5:x2:1": Length shorter than recommended for a level 1 MOSFET.
Instance "m:x1:x1:x2:x5:x2:1": Width narrower than recommended for a level 1 MOSFET.
Instance "m:x1:x1:x2:x5:x1:4": Length shorter than recommended for a level 1 MOSFET.
Instance "m:x1:x1:x2:x5:x1:4": Width narrower than recommended for a level 1 MOSFET.
Instance "m:x1:x1:x2:x5:x1:7": Length shorter than recommended for a level 1 MOSFET.
Instance "m:x1:x1:x2:x5:x1:7": Width narrower than recommended for a level 1 MOSFET.
Instance "m:x1:x1:x2:x5:x1:5": Length shorter than recommended for a level 1 MOSFET.
Instance "m:x1:x1:x2:x5:x1:5": Width narrower than recommended for a level 1 MOSFET.
Instance "m:x1:x1:x2:x5:x1:6": Length shorter than recommended for a level 1 MOSFET.
Instance "m:x1:x1:x2:x5:x1:6": Width narrower than recommended for a level 1 MOSFET.
Instance "m:x1:x1:x3:x1:x3:2": Length shorter than recommended for a level 1 MOSFET.
Instance "m:x1:x1:x3:x1:x3:2": Width narrower than recommended for a level 1 MOSFET.
Instance "m:x1:x1:x3:x1:x3:3": Length shorter than recommended for a level 1 MOSFET.
Instance "m:x1:x1:x3:x1:x3:3": Width narrower than recommended for a level 1 MOSFET.
Instance "m:x1:x1:x3:x1:x3:1": Length shorter than recommended for a level 1 MOSFET.
Instance "m:x1:x1:x3:x1:x3:1": Width narrower than recommended for a level 1 MOSFET.
Instance "m:x1:x1:x3:x1:x3:4": Length shorter than recommended for a level 1 MOSFET.
Instance "m:x1:x1:x3:x1:x3:4": Width narrower than recommended for a level 1 MOSFET.
Instance "m:x1:x1:x3:x1:x1:2": Length shorter than recommended for a level 1 MOSFET.
Instance "m:x1:x1:x3:x1:x1:2": Width narrower than recommended for a level 1 MOSFET.
Instance "m:x1:x1:x3:x1:x1:3": Length shorter than recommended for a level 1 MOSFET.
Instance "m:x1:x1:x3:x1:x1:3": Width narrower than recommended for a level 1 MOSFET.
Instance "m:x1:x1:x3:x1:x1:1": Length shorter than recommended for a level 1 MOSFET.
Instance "m:x1:x1:x3:x1:x1:1": Width narrower than recommended for a level 1 MOSFET.
Instance "m:x1:x1:x3:x1:x1:4": Length shorter than recommended for a level 1 MOSFET.
Instance "m:x1:x1:x3:x1:x1:4": Width narrower than recommended for a level 1 MOSFET.
Instance "m:x1:x1:x3:x1:x2:2": Length shorter than recommended for a level 1 MOSFET.
Instance "m:x1:x1:x3:x1:x2:2": Width narrower than recommended for a level 1 MOSFET.
Instance "m:x1:x1:x3:x1:x2:3": Length shorter than recommended for a level 1 MOSFET.
Instance "m:x1:x1:x3:x1:x2:3": Width narrower than recommended for a level 1 MOSFET.
Instance "m:x1:x1:x3:x1:x2:1": Length shorter than recommended for a level 1 MOSFET.
Instance "m:x1:x1:x3:x1:x2:1": Width narrower than recommended for a level 1 MOSFET.
Instance "m:x1:x1:x3:x1:x2:4": Length shorter than recommended for a level 1 MOSFET.
Instance "m:x1:x1:x3:x1:x2:4": Width narrower than recommended for a level 1 MOSFET.
Instance "m:x1:x1:x3:x1:x4:2": Length shorter than recommended for a level 1 MOSFET.
Instance "m:x1:x1:x3:x1:x4:2": Width narrower than recommended for a level 1 MOSFET.
Instance "m:x1:x1:x3:x1:x4:3": Length shorter than recommended for a level 1 MOSFET.
Instance "m:x1:x1:x3:x1:x4:3": Width narrower than recommended for a level 1 MOSFET.
Instance "m:x1:x1:x3:x1:x4:1": Length shorter than recommended for a level 1 MOSFET.
Instance "m:x1:x1:x3:x1:x4:1": Width narrower than recommended for a level 1 MOSFET.
Instance "m:x1:x1:x3:x1:x4:4": Length shorter than recommended for a level 1 MOSFET.
Instance "m:x1:x1:x3:x1:x4:4": Width narrower than recommended for a level 1 MOSFET.
Instance "m:x1:x1:x3:x2:x3:2": Length shorter than recommended for a level 1 MOSFET.
Instance "m:x1:x1:x3:x2:x3:2": Width narrower than recommended for a level 1 MOSFET.
Instance "m:x1:x1:x3:x2:x3:3": Length shorter than recommended for a level 1 MOSFET.
Instance "m:x1:x1:x3:x2:x3:3": Width narrower than recommended for a level 1 MOSFET.
Instance "m:x1:x1:x3:x2:x3:1": Length shorter than recommended for a level 1 MOSFET.
Instance "m:x1:x1:x3:x2:x3:1": Width narrower than recommended for a level 1 MOSFET.
Instance "m:x1:x1:x3:x2:x3:4": Length shorter than recommended for a level 1 MOSFET.
Instance "m:x1:x1:x3:x2:x3:4": Width narrower than recommended for a level 1 MOSFET.
Instance "m:x1:x1:x3:x2:x1:2": Length shorter than recommended for a level 1 MOSFET.
Instance "m:x1:x1:x3:x2:x1:2": Width narrower than recommended for a level 1 MOSFET.
Instance "m:x1:x1:x3:x2:x1:3": Length shorter than recommended for a level 1 MOSFET.
Instance "m:x1:x1:x3:x2:x1:3": Width narrower than recommended for a level 1 MOSFET.
Instance "m:x1:x1:x3:x2:x1:1": Length shorter than recommended for a level 1 MOSFET.
Instance "m:x1:x1:x3:x2:x1:1": Width narrower than recommended for a level 1 MOSFET.
Instance "m:x1:x1:x3:x2:x1:4": Length shorter than recommended for a level 1 MOSFET.
Instance "m:x1:x1:x3:x2:x1:4": Width narrower than recommended for a level 1 MOSFET.
Instance "m:x1:x1:x3:x2:x2:2": Length shorter than recommended for a level 1 MOSFET.
Instance "m:x1:x1:x3:x2:x2:2": Width narrower than recommended for a level 1 MOSFET.
Instance "m:x1:x1:x3:x2:x2:3": Length shorter than recommended for a level 1 MOSFET.
Instance "m:x1:x1:x3:x2:x2:3": Width narrower than recommended for a level 1 MOSFET.
Instance "m:x1:x1:x3:x2:x2:1": Length shorter than recommended for a level 1 MOSFET.
Instance "m:x1:x1:x3:x2:x2:1": Width narrower than recommended for a level 1 MOSFET.
Instance "m:x1:x1:x3:x2:x2:4": Length shorter than recommended for a level 1 MOSFET.
Instance "m:x1:x1:x3:x2:x2:4": Width narrower than recommended for a level 1 MOSFET.
Instance "m:x1:x1:x3:x2:x4:2": Length shorter than recommended for a level 1 MOSFET.
Instance "m:x1:x1:x3:x2:x4:2": Width narrower than recommended for a level 1 MOSFET.
Instance "m:x1:x1:x3:x2:x4:3": Length shorter than recommended for a level 1 MOSFET.
Instance "m:x1:x1:x3:x2:x4:3": Width narrower than recommended for a level 1 MOSFET.
Instance "m:x1:x1:x3:x2:x4:1": Length shorter than recommended for a level 1 MOSFET.
Instance "m:x1:x1:x3:x2:x4:1": Width narrower than recommended for a level 1 MOSFET.
Instance "m:x1:x1:x3:x2:x4:4": Length shorter than recommended for a level 1 MOSFET.
Instance "m:x1:x1:x3:x2:x4:4": Width narrower than recommended for a level 1 MOSFET.
Instance "m:x1:x1:x3:x3:x1:2": Length shorter than recommended for a level 1 MOSFET.
Instance "m:x1:x1:x3:x3:x1:2": Width narrower than recommended for a level 1 MOSFET.
Instance "m:x1:x1:x3:x3:x1:3": Length shorter than recommended for a level 1 MOSFET.
Instance "m:x1:x1:x3:x3:x1:3": Width narrower than recommended for a level 1 MOSFET.
Instance "m:x1:x1:x3:x3:x1:1": Length shorter than recommended for a level 1 MOSFET.
Instance "m:x1:x1:x3:x3:x1:1": Width narrower than recommended for a level 1 MOSFET.
Instance "m:x1:x1:x3:x3:x1:4": Length shorter than recommended for a level 1 MOSFET.
Instance "m:x1:x1:x3:x3:x1:4": Width narrower than recommended for a level 1 MOSFET.
Instance "m:x1:x1:x3:x3:x2:2": Length shorter than recommended for a level 1 MOSFET.
Instance "m:x1:x1:x3:x3:x2:2": Width narrower than recommended for a level 1 MOSFET.
Instance "m:x1:x1:x3:x3:x2:1": Length shorter than recommended for a level 1 MOSFET.
Instance "m:x1:x1:x3:x3:x2:1": Width narrower than recommended for a level 1 MOSFET.
Instance "m:x1:x1:x3:x4:x1:2": Length shorter than recommended for a level 1 MOSFET.
Instance "m:x1:x1:x3:x4:x1:2": Width narrower than recommended for a level 1 MOSFET.
Instance "m:x1:x1:x3:x4:x1:3": Length shorter than recommended for a level 1 MOSFET.
Instance "m:x1:x1:x3:x4:x1:3": Width narrower than recommended for a level 1 MOSFET.
Instance "m:x1:x1:x3:x4:x1:1": Length shorter than recommended for a level 1 MOSFET.
Instance "m:x1:x1:x3:x4:x1:1": Width narrower than recommended for a level 1 MOSFET.
Instance "m:x1:x1:x3:x4:x1:4": Length shorter than recommended for a level 1 MOSFET.
Instance "m:x1:x1:x3:x4:x1:4": Width narrower than recommended for a level 1 MOSFET.
Instance "m:x1:x1:x3:x4:x2:2": Length shorter than recommended for a level 1 MOSFET.
Instance "m:x1:x1:x3:x4:x2:2": Width narrower than recommended for a level 1 MOSFET.
Instance "m:x1:x1:x3:x4:x2:1": Length shorter than recommended for a level 1 MOSFET.
Instance "m:x1:x1:x3:x4:x2:1": Width narrower than recommended for a level 1 MOSFET.
Instance "m:x1:x1:x3:x5:x2:2": Length shorter than recommended for a level 1 MOSFET.
Instance "m:x1:x1:x3:x5:x2:2": Width narrower than recommended for a level 1 MOSFET.
Instance "m:x1:x1:x3:x5:x2:1": Length shorter than recommended for a level 1 MOSFET.
Instance "m:x1:x1:x3:x5:x2:1": Width narrower than recommended for a level 1 MOSFET.
Instance "m:x1:x1:x3:x5:x1:4": Length shorter than recommended for a level 1 MOSFET.
Instance "m:x1:x1:x3:x5:x1:4": Width narrower than recommended for a level 1 MOSFET.
Instance "m:x1:x1:x3:x5:x1:7": Length shorter than recommended for a level 1 MOSFET.
Instance "m:x1:x1:x3:x5:x1:7": Width narrower than recommended for a level 1 MOSFET.
Instance "m:x1:x1:x3:x5:x1:5": Length shorter than recommended for a level 1 MOSFET.
Instance "m:x1:x1:x3:x5:x1:5": Width narrower than recommended for a level 1 MOSFET.
Instance "m:x1:x1:x3:x5:x1:6": Length shorter than recommended for a level 1 MOSFET.
Instance "m:x1:x1:x3:x5:x1:6": Width narrower than recommended for a level 1 MOSFET.
Instance "m:x1:x1:x4:x1:x3:2": Length shorter than recommended for a level 1 MOSFET.
Instance "m:x1:x1:x4:x1:x3:2": Width narrower than recommended for a level 1 MOSFET.
Instance "m:x1:x1:x4:x1:x3:3": Length shorter than recommended for a level 1 MOSFET.
Instance "m:x1:x1:x4:x1:x3:3": Width narrower than recommended for a level 1 MOSFET.
Instance "m:x1:x1:x4:x1:x3:1": Length shorter than recommended for a level 1 MOSFET.
Instance "m:x1:x1:x4:x1:x3:1": Width narrower than recommended for a level 1 MOSFET.
Instance "m:x1:x1:x4:x1:x3:4": Length shorter than recommended for a level 1 MOSFET.
Instance "m:x1:x1:x4:x1:x3:4": Width narrower than recommended for a level 1 MOSFET.
Instance "m:x1:x1:x4:x1:x1:2": Length shorter than recommended for a level 1 MOSFET.
Instance "m:x1:x1:x4:x1:x1:2": Width narrower than recommended for a level 1 MOSFET.
Instance "m:x1:x1:x4:x1:x1:3": Length shorter than recommended for a level 1 MOSFET.
Instance "m:x1:x1:x4:x1:x1:3": Width narrower than recommended for a level 1 MOSFET.
Instance "m:x1:x1:x4:x1:x1:1": Length shorter than recommended for a level 1 MOSFET.
Instance "m:x1:x1:x4:x1:x1:1": Width narrower than recommended for a level 1 MOSFET.
Instance "m:x1:x1:x4:x1:x1:4": Length shorter than recommended for a level 1 MOSFET.
Instance "m:x1:x1:x4:x1:x1:4": Width narrower than recommended for a level 1 MOSFET.
Instance "m:x1:x1:x4:x1:x2:2": Length shorter than recommended for a level 1 MOSFET.
Instance "m:x1:x1:x4:x1:x2:2": Width narrower than recommended for a level 1 MOSFET.
Instance "m:x1:x1:x4:x1:x2:3": Length shorter than recommended for a level 1 MOSFET.
Instance "m:x1:x1:x4:x1:x2:3": Width narrower than recommended for a level 1 MOSFET.
Instance "m:x1:x1:x4:x1:x2:1": Length shorter than recommended for a level 1 MOSFET.
Instance "m:x1:x1:x4:x1:x2:1": Width narrower than recommended for a level 1 MOSFET.
Instance "m:x1:x1:x4:x1:x2:4": Length shorter than recommended for a level 1 MOSFET.
Instance "m:x1:x1:x4:x1:x2:4": Width narrower than recommended for a level 1 MOSFET.
Instance "m:x1:x1:x4:x1:x4:2": Length shorter than recommended for a level 1 MOSFET.
Instance "m:x1:x1:x4:x1:x4:2": Width narrower than recommended for a level 1 MOSFET.
Instance "m:x1:x1:x4:x1:x4:3": Length shorter than recommended for a level 1 MOSFET.
Instance "m:x1:x1:x4:x1:x4:3": Width narrower than recommended for a level 1 MOSFET.
Instance "m:x1:x1:x4:x1:x4:1": Length shorter than recommended for a level 1 MOSFET.
Instance "m:x1:x1:x4:x1:x4:1": Width narrower than recommended for a level 1 MOSFET.
Instance "m:x1:x1:x4:x1:x4:4": Length shorter than recommended for a level 1 MOSFET.
Instance "m:x1:x1:x4:x1:x4:4": Width narrower than recommended for a level 1 MOSFET.
Instance "m:x1:x1:x4:x2:x3:2": Length shorter than recommended for a level 1 MOSFET.
Instance "m:x1:x1:x4:x2:x3:2": Width narrower than recommended for a level 1 MOSFET.
Instance "m:x1:x1:x4:x2:x3:3": Length shorter than recommended for a level 1 MOSFET.
Instance "m:x1:x1:x4:x2:x3:3": Width narrower than recommended for a level 1 MOSFET.
Instance "m:x1:x1:x4:x2:x3:1": Length shorter than recommended for a level 1 MOSFET.
Instance "m:x1:x1:x4:x2:x3:1": Width narrower than recommended for a level 1 MOSFET.
Instance "m:x1:x1:x4:x2:x3:4": Length shorter than recommended for a level 1 MOSFET.
Instance "m:x1:x1:x4:x2:x3:4": Width narrower than recommended for a level 1 MOSFET.
Instance "m:x1:x1:x4:x2:x1:2": Length shorter than recommended for a level 1 MOSFET.
Instance "m:x1:x1:x4:x2:x1:2": Width narrower than recommended for a level 1 MOSFET.
Instance "m:x1:x1:x4:x2:x1:3": Length shorter than recommended for a level 1 MOSFET.
Instance "m:x1:x1:x4:x2:x1:3": Width narrower than recommended for a level 1 MOSFET.
Instance "m:x1:x1:x4:x2:x1:1": Length shorter than recommended for a level 1 MOSFET.
Instance "m:x1:x1:x4:x2:x1:1": Width narrower than recommended for a level 1 MOSFET.
Instance "m:x1:x1:x4:x2:x1:4": Length shorter than recommended for a level 1 MOSFET.
Instance "m:x1:x1:x4:x2:x1:4": Width narrower than recommended for a level 1 MOSFET.
Instance "m:x1:x1:x4:x2:x2:2": Length shorter than recommended for a level 1 MOSFET.
Instance "m:x1:x1:x4:x2:x2:2": Width narrower than recommended for a level 1 MOSFET.
Instance "m:x1:x1:x4:x2:x2:3": Length shorter than recommended for a level 1 MOSFET.
Instance "m:x1:x1:x4:x2:x2:3": Width narrower than recommended for a level 1 MOSFET.
Instance "m:x1:x1:x4:x2:x2:1": Length shorter than recommended for a level 1 MOSFET.
Instance "m:x1:x1:x4:x2:x2:1": Width narrower than recommended for a level 1 MOSFET.
Instance "m:x1:x1:x4:x2:x2:4": Length shorter than recommended for a level 1 MOSFET.
Instance "m:x1:x1:x4:x2:x2:4": Width narrower than recommended for a level 1 MOSFET.
Instance "m:x1:x1:x4:x2:x4:2": Length shorter than recommended for a level 1 MOSFET.
Instance "m:x1:x1:x4:x2:x4:2": Width narrower than recommended for a level 1 MOSFET.
Instance "m:x1:x1:x4:x2:x4:3": Length shorter than recommended for a level 1 MOSFET.
Instance "m:x1:x1:x4:x2:x4:3": Width narrower than recommended for a level 1 MOSFET.
Instance "m:x1:x1:x4:x2:x4:1": Length shorter than recommended for a level 1 MOSFET.
Instance "m:x1:x1:x4:x2:x4:1": Width narrower than recommended for a level 1 MOSFET.
Instance "m:x1:x1:x4:x2:x4:4": Length shorter than recommended for a level 1 MOSFET.
Instance "m:x1:x1:x4:x2:x4:4": Width narrower than recommended for a level 1 MOSFET.
Instance "m:x1:x1:x4:x3:x1:2": Length shorter than recommended for a level 1 MOSFET.
Instance "m:x1:x1:x4:x3:x1:2": Width narrower than recommended for a level 1 MOSFET.
Instance "m:x1:x1:x4:x3:x1:3": Length shorter than recommended for a level 1 MOSFET.
Instance "m:x1:x1:x4:x3:x1:3": Width narrower than recommended for a level 1 MOSFET.
Instance "m:x1:x1:x4:x3:x1:1": Length shorter than recommended for a level 1 MOSFET.
Instance "m:x1:x1:x4:x3:x1:1": Width narrower than recommended for a level 1 MOSFET.
Instance "m:x1:x1:x4:x3:x1:4": Length shorter than recommended for a level 1 MOSFET.
Instance "m:x1:x1:x4:x3:x1:4": Width narrower than recommended for a level 1 MOSFET.
Instance "m:x1:x1:x4:x3:x2:2": Length shorter than recommended for a level 1 MOSFET.
Instance "m:x1:x1:x4:x3:x2:2": Width narrower than recommended for a level 1 MOSFET.
Instance "m:x1:x1:x4:x3:x2:1": Length shorter than recommended for a level 1 MOSFET.
Instance "m:x1:x1:x4:x3:x2:1": Width narrower than recommended for a level 1 MOSFET.
Instance "m:x1:x1:x4:x4:x1:2": Length shorter than recommended for a level 1 MOSFET.
Instance "m:x1:x1:x4:x4:x1:2": Width narrower than recommended for a level 1 MOSFET.
Instance "m:x1:x1:x4:x4:x1:3": Length shorter than recommended for a level 1 MOSFET.
Instance "m:x1:x1:x4:x4:x1:3": Width narrower than recommended for a level 1 MOSFET.
Instance "m:x1:x1:x4:x4:x1:1": Length shorter than recommended for a level 1 MOSFET.
Instance "m:x1:x1:x4:x4:x1:1": Width narrower than recommended for a level 1 MOSFET.
Instance "m:x1:x1:x4:x4:x1:4": Length shorter than recommended for a level 1 MOSFET.
Instance "m:x1:x1:x4:x4:x1:4": Width narrower than recommended for a level 1 MOSFET.
Instance "m:x1:x1:x4:x4:x2:2": Length shorter than recommended for a level 1 MOSFET.
Instance "m:x1:x1:x4:x4:x2:2": Width narrower than recommended for a level 1 MOSFET.
Instance "m:x1:x1:x4:x4:x2:1": Length shorter than recommended for a level 1 MOSFET.
Instance "m:x1:x1:x4:x4:x2:1": Width narrower than recommended for a level 1 MOSFET.
Instance "m:x1:x1:x4:x5:x2:2": Length shorter than recommended for a level 1 MOSFET.
Instance "m:x1:x1:x4:x5:x2:2": Width narrower than recommended for a level 1 MOSFET.
Instance "m:x1:x1:x4:x5:x2:1": Length shorter than recommended for a level 1 MOSFET.
Instance "m:x1:x1:x4:x5:x2:1": Width narrower than recommended for a level 1 MOSFET.
Instance "m:x1:x1:x4:x5:x1:4": Length shorter than recommended for a level 1 MOSFET.
Instance "m:x1:x1:x4:x5:x1:4": Width narrower than recommended for a level 1 MOSFET.
Instance "m:x1:x1:x4:x5:x1:7": Length shorter than recommended for a level 1 MOSFET.
Instance "m:x1:x1:x4:x5:x1:7": Width narrower than recommended for a level 1 MOSFET.
Instance "m:x1:x1:x4:x5:x1:5": Length shorter than recommended for a level 1 MOSFET.
Instance "m:x1:x1:x4:x5:x1:5": Width narrower than recommended for a level 1 MOSFET.
Instance "m:x1:x1:x4:x5:x1:6": Length shorter than recommended for a level 1 MOSFET.
Instance "m:x1:x1:x4:x5:x1:6": Width narrower than recommended for a level 1 MOSFET.
Instance "m:x1:x1:x5:x1:x3:2": Length shorter than recommended for a level 1 MOSFET.
Instance "m:x1:x1:x5:x1:x3:2": Width narrower than recommended for a level 1 MOSFET.
Instance "m:x1:x1:x5:x1:x3:3": Length shorter than recommended for a level 1 MOSFET.
Instance "m:x1:x1:x5:x1:x3:3": Width narrower than recommended for a level 1 MOSFET.
Instance "m:x1:x1:x5:x1:x3:1": Length shorter than recommended for a level 1 MOSFET.
Instance "m:x1:x1:x5:x1:x3:1": Width narrower than recommended for a level 1 MOSFET.
Instance "m:x1:x1:x5:x1:x3:4": Length shorter than recommended for a level 1 MOSFET.
Instance "m:x1:x1:x5:x1:x3:4": Width narrower than recommended for a level 1 MOSFET.
Instance "m:x1:x1:x5:x1:x1:2": Length shorter than recommended for a level 1 MOSFET.
Instance "m:x1:x1:x5:x1:x1:2": Width narrower than recommended for a level 1 MOSFET.
Instance "m:x1:x1:x5:x1:x1:3": Length shorter than recommended for a level 1 MOSFET.
Instance "m:x1:x1:x5:x1:x1:3": Width narrower than recommended for a level 1 MOSFET.
Instance "m:x1:x1:x5:x1:x1:1": Length shorter than recommended for a level 1 MOSFET.
Instance "m:x1:x1:x5:x1:x1:1": Width narrower than recommended for a level 1 MOSFET.
Instance "m:x1:x1:x5:x1:x1:4": Length shorter than recommended for a level 1 MOSFET.
Instance "m:x1:x1:x5:x1:x1:4": Width narrower than recommended for a level 1 MOSFET.
Instance "m:x1:x1:x5:x1:x2:2": Length shorter than recommended for a level 1 MOSFET.
Instance "m:x1:x1:x5:x1:x2:2": Width narrower than recommended for a level 1 MOSFET.
Instance "m:x1:x1:x5:x1:x2:3": Length shorter than recommended for a level 1 MOSFET.
Instance "m:x1:x1:x5:x1:x2:3": Width narrower than recommended for a level 1 MOSFET.
Instance "m:x1:x1:x5:x1:x2:1": Length shorter than recommended for a level 1 MOSFET.
Instance "m:x1:x1:x5:x1:x2:1": Width narrower than recommended for a level 1 MOSFET.
Instance "m:x1:x1:x5:x1:x2:4": Length shorter than recommended for a level 1 MOSFET.
Instance "m:x1:x1:x5:x1:x2:4": Width narrower than recommended for a level 1 MOSFET.
Instance "m:x1:x1:x5:x1:x4:2": Length shorter than recommended for a level 1 MOSFET.
Instance "m:x1:x1:x5:x1:x4:2": Width narrower than recommended for a level 1 MOSFET.
Instance "m:x1:x1:x5:x1:x4:3": Length shorter than recommended for a level 1 MOSFET.
Instance "m:x1:x1:x5:x1:x4:3": Width narrower than recommended for a level 1 MOSFET.
Instance "m:x1:x1:x5:x1:x4:1": Length shorter than recommended for a level 1 MOSFET.
Instance "m:x1:x1:x5:x1:x4:1": Width narrower than recommended for a level 1 MOSFET.
Instance "m:x1:x1:x5:x1:x4:4": Length shorter than recommended for a level 1 MOSFET.
Instance "m:x1:x1:x5:x1:x4:4": Width narrower than recommended for a level 1 MOSFET.
Instance "m:x1:x1:x5:x2:x3:2": Length shorter than recommended for a level 1 MOSFET.
Instance "m:x1:x1:x5:x2:x3:2": Width narrower than recommended for a level 1 MOSFET.
Instance "m:x1:x1:x5:x2:x3:3": Length shorter than recommended for a level 1 MOSFET.
Instance "m:x1:x1:x5:x2:x3:3": Width narrower than recommended for a level 1 MOSFET.
Instance "m:x1:x1:x5:x2:x3:1": Length shorter than recommended for a level 1 MOSFET.
Instance "m:x1:x1:x5:x2:x3:1": Width narrower than recommended for a level 1 MOSFET.
Instance "m:x1:x1:x5:x2:x3:4": Length shorter than recommended for a level 1 MOSFET.
Instance "m:x1:x1:x5:x2:x3:4": Width narrower than recommended for a level 1 MOSFET.
Instance "m:x1:x1:x5:x2:x1:2": Length shorter than recommended for a level 1 MOSFET.
Instance "m:x1:x1:x5:x2:x1:2": Width narrower than recommended for a level 1 MOSFET.
Instance "m:x1:x1:x5:x2:x1:3": Length shorter than recommended for a level 1 MOSFET.
Instance "m:x1:x1:x5:x2:x1:3": Width narrower than recommended for a level 1 MOSFET.
Instance "m:x1:x1:x5:x2:x1:1": Length shorter than recommended for a level 1 MOSFET.
Instance "m:x1:x1:x5:x2:x1:1": Width narrower than recommended for a level 1 MOSFET.
Instance "m:x1:x1:x5:x2:x1:4": Length shorter than recommended for a level 1 MOSFET.
Instance "m:x1:x1:x5:x2:x1:4": Width narrower than recommended for a level 1 MOSFET.
Instance "m:x1:x1:x5:x2:x2:2": Length shorter than recommended for a level 1 MOSFET.
Instance "m:x1:x1:x5:x2:x2:2": Width narrower than recommended for a level 1 MOSFET.
Instance "m:x1:x1:x5:x2:x2:3": Length shorter than recommended for a level 1 MOSFET.
Instance "m:x1:x1:x5:x2:x2:3": Width narrower than recommended for a level 1 MOSFET.
Instance "m:x1:x1:x5:x2:x2:1": Length shorter than recommended for a level 1 MOSFET.
Instance "m:x1:x1:x5:x2:x2:1": Width narrower than recommended for a level 1 MOSFET.
Instance "m:x1:x1:x5:x2:x2:4": Length shorter than recommended for a level 1 MOSFET.
Instance "m:x1:x1:x5:x2:x2:4": Width narrower than recommended for a level 1 MOSFET.
Instance "m:x1:x1:x5:x2:x4:2": Length shorter than recommended for a level 1 MOSFET.
Instance "m:x1:x1:x5:x2:x4:2": Width narrower than recommended for a level 1 MOSFET.
Instance "m:x1:x1:x5:x2:x4:3": Length shorter than recommended for a level 1 MOSFET.
Instance "m:x1:x1:x5:x2:x4:3": Width narrower than recommended for a level 1 MOSFET.
Instance "m:x1:x1:x5:x2:x4:1": Length shorter than recommended for a level 1 MOSFET.
Instance "m:x1:x1:x5:x2:x4:1": Width narrower than recommended for a level 1 MOSFET.
Instance "m:x1:x1:x5:x2:x4:4": Length shorter than recommended for a level 1 MOSFET.
Instance "m:x1:x1:x5:x2:x4:4": Width narrower than recommended for a level 1 MOSFET.
Instance "m:x1:x1:x5:x3:x1:2": Length shorter than recommended for a level 1 MOSFET.
Instance "m:x1:x1:x5:x3:x1:2": Width narrower than recommended for a level 1 MOSFET.
Instance "m:x1:x1:x5:x3:x1:3": Length shorter than recommended for a level 1 MOSFET.
Instance "m:x1:x1:x5:x3:x1:3": Width narrower than recommended for a level 1 MOSFET.
Instance "m:x1:x1:x5:x3:x1:1": Length shorter than recommended for a level 1 MOSFET.
Instance "m:x1:x1:x5:x3:x1:1": Width narrower than recommended for a level 1 MOSFET.
Instance "m:x1:x1:x5:x3:x1:4": Length shorter than recommended for a level 1 MOSFET.
Instance "m:x1:x1:x5:x3:x1:4": Width narrower than recommended for a level 1 MOSFET.
Instance "m:x1:x1:x5:x3:x2:2": Length shorter than recommended for a level 1 MOSFET.
Instance "m:x1:x1:x5:x3:x2:2": Width narrower than recommended for a level 1 MOSFET.
Instance "m:x1:x1:x5:x3:x2:1": Length shorter than recommended for a level 1 MOSFET.
Instance "m:x1:x1:x5:x3:x2:1": Width narrower than recommended for a level 1 MOSFET.
Instance "m:x1:x1:x5:x4:x1:2": Length shorter than recommended for a level 1 MOSFET.
Instance "m:x1:x1:x5:x4:x1:2": Width narrower than recommended for a level 1 MOSFET.
Instance "m:x1:x1:x5:x4:x1:3": Length shorter than recommended for a level 1 MOSFET.
Instance "m:x1:x1:x5:x4:x1:3": Width narrower than recommended for a level 1 MOSFET.
Instance "m:x1:x1:x5:x4:x1:1": Length shorter than recommended for a level 1 MOSFET.
Instance "m:x1:x1:x5:x4:x1:1": Width narrower than recommended for a level 1 MOSFET.
Instance "m:x1:x1:x5:x4:x1:4": Length shorter than recommended for a level 1 MOSFET.
Instance "m:x1:x1:x5:x4:x1:4": Width narrower than recommended for a level 1 MOSFET.
Instance "m:x1:x1:x5:x4:x2:2": Length shorter than recommended for a level 1 MOSFET.
Instance "m:x1:x1:x5:x4:x2:2": Width narrower than recommended for a level 1 MOSFET.
Instance "m:x1:x1:x5:x4:x2:1": Length shorter than recommended for a level 1 MOSFET.
Instance "m:x1:x1:x5:x4:x2:1": Width narrower than recommended for a level 1 MOSFET.
Instance "m:x1:x1:x5:x5:x2:2": Length shorter than recommended for a level 1 MOSFET.
Instance "m:x1:x1:x5:x5:x2:2": Width narrower than recommended for a level 1 MOSFET.
Instance "m:x1:x1:x5:x5:x2:1": Length shorter than recommended for a level 1 MOSFET.
Instance "m:x1:x1:x5:x5:x2:1": Width narrower than recommended for a level 1 MOSFET.
Instance "m:x1:x1:x5:x5:x1:4": Length shorter than recommended for a level 1 MOSFET.
Instance "m:x1:x1:x5:x5:x1:4": Width narrower than recommended for a level 1 MOSFET.
Instance "m:x1:x1:x5:x5:x1:7": Length shorter than recommended for a level 1 MOSFET.
Instance "m:x1:x1:x5:x5:x1:7": Width narrower than recommended for a level 1 MOSFET.
Instance "m:x1:x1:x5:x5:x1:5": Length shorter than recommended for a level 1 MOSFET.
Instance "m:x1:x1:x5:x5:x1:5": Width narrower than recommended for a level 1 MOSFET.
Instance "m:x1:x1:x5:x5:x1:6": Length shorter than recommended for a level 1 MOSFET.
Instance "m:x1:x1:x5:x5:x1:6": Width narrower than recommended for a level 1 MOSFET.
Instance "m:x1:x2:x1:x1:x3:2": Length shorter than recommended for a level 1 MOSFET.
Instance "m:x1:x2:x1:x1:x3:2": Width narrower than recommended for a level 1 MOSFET.
Instance "m:x1:x2:x1:x1:x3:3": Length shorter than recommended for a level 1 MOSFET.
Instance "m:x1:x2:x1:x1:x3:3": Width narrower than recommended for a level 1 MOSFET.
Instance "m:x1:x2:x1:x1:x3:1": Length shorter than recommended for a level 1 MOSFET.
Instance "m:x1:x2:x1:x1:x3:1": Width narrower than recommended for a level 1 MOSFET.
Instance "m:x1:x2:x1:x1:x3:4": Length shorter than recommended for a level 1 MOSFET.
Instance "m:x1:x2:x1:x1:x3:4": Width narrower than recommended for a level 1 MOSFET.
Instance "m:x1:x2:x1:x1:x1:2": Length shorter than recommended for a level 1 MOSFET.
Instance "m:x1:x2:x1:x1:x1:2": Width narrower than recommended for a level 1 MOSFET.
Instance "m:x1:x2:x1:x1:x1:3": Length shorter than recommended for a level 1 MOSFET.
Instance "m:x1:x2:x1:x1:x1:3": Width narrower than recommended for a level 1 MOSFET.
Instance "m:x1:x2:x1:x1:x1:1": Length shorter than recommended for a level 1 MOSFET.
Instance "m:x1:x2:x1:x1:x1:1": Width narrower than recommended for a level 1 MOSFET.
Instance "m:x1:x2:x1:x1:x1:4": Length shorter than recommended for a level 1 MOSFET.
Instance "m:x1:x2:x1:x1:x1:4": Width narrower than recommended for a level 1 MOSFET.
Instance "m:x1:x2:x1:x1:x2:2": Length shorter than recommended for a level 1 MOSFET.
Instance "m:x1:x2:x1:x1:x2:2": Width narrower than recommended for a level 1 MOSFET.
Instance "m:x1:x2:x1:x1:x2:3": Length shorter than recommended for a level 1 MOSFET.
Instance "m:x1:x2:x1:x1:x2:3": Width narrower than recommended for a level 1 MOSFET.
Instance "m:x1:x2:x1:x1:x2:1": Length shorter than recommended for a level 1 MOSFET.
Instance "m:x1:x2:x1:x1:x2:1": Width narrower than recommended for a level 1 MOSFET.
Instance "m:x1:x2:x1:x1:x2:4": Length shorter than recommended for a level 1 MOSFET.
Instance "m:x1:x2:x1:x1:x2:4": Width narrower than recommended for a level 1 MOSFET.
Instance "m:x1:x2:x1:x1:x4:2": Length shorter than recommended for a level 1 MOSFET.
Instance "m:x1:x2:x1:x1:x4:2": Width narrower than recommended for a level 1 MOSFET.
Instance "m:x1:x2:x1:x1:x4:3": Length shorter than recommended for a level 1 MOSFET.
Instance "m:x1:x2:x1:x1:x4:3": Width narrower than recommended for a level 1 MOSFET.
Instance "m:x1:x2:x1:x1:x4:1": Length shorter than recommended for a level 1 MOSFET.
Instance "m:x1:x2:x1:x1:x4:1": Width narrower than recommended for a level 1 MOSFET.
Instance "m:x1:x2:x1:x1:x4:4": Length shorter than recommended for a level 1 MOSFET.
Instance "m:x1:x2:x1:x1:x4:4": Width narrower than recommended for a level 1 MOSFET.
Instance "m:x1:x2:x1:x2:x3:2": Length shorter than recommended for a level 1 MOSFET.
Instance "m:x1:x2:x1:x2:x3:2": Width narrower than recommended for a level 1 MOSFET.
Instance "m:x1:x2:x1:x2:x3:3": Length shorter than recommended for a level 1 MOSFET.
Instance "m:x1:x2:x1:x2:x3:3": Width narrower than recommended for a level 1 MOSFET.
Instance "m:x1:x2:x1:x2:x3:1": Length shorter than recommended for a level 1 MOSFET.
Instance "m:x1:x2:x1:x2:x3:1": Width narrower than recommended for a level 1 MOSFET.
Instance "m:x1:x2:x1:x2:x3:4": Length shorter than recommended for a level 1 MOSFET.
[...]
Instance "m:x1:x4:x7:x1:5": Width narrower than recommended for a level 1 MOSFET.
Instance "m:x1:x4:x7:x1:6": Length shorter than recommended for a level 1 MOSFET.
Instance "m:x1:x4:x7:x1:6": Width narrower than recommended for a level 1 MOSFET.
Instance "m:x1:x4:x8:x2:2": Length shorter than recommended for a level 1 MOSFET.
Instance "m:x1:x4:x8:x2:2": Width narrower than recommended for a level 1 MOSFET.
Instance "m:x1:x4:x8:x2:1": Length shorter than recommended for a level 1 MOSFET.
Instance "m:x1:x4:x8:x2:1": Width narrower than recommended for a level 1 MOSFET.
Instance "m:x1:x4:x8:x1:4": Length shorter than recommended for a level 1 MOSFET.
Instance "m:x1:x4:x8:x1:4": Width narrower than recommended for a level 1 MOSFET.
Instance "m:x1:x4:x8:x1:7": Length shorter than recommended for a level 1 MOSFET.
Instance "m:x1:x4:x8:x1:7": Width narrower than recommended for a level 1 MOSFET.
Instance "m:x1:x4:x8:x1:5": Length shorter than recommended for a level 1 MOSFET.
Instance "m:x1:x4:x8:x1:5": Width narrower than recommended for a level 1 MOSFET.
Instance "m:x1:x4:x8:x1:6": Length shorter than recommended for a level 1 MOSFET.
Instance "m:x1:x4:x8:x1:6": Width narrower than recommended for a level 1 MOSFET.
Instance "m:x1:x4:x9:x1:2": Length shorter than recommended for a level 1 MOSFET.
Instance "m:x1:x4:x9:x1:2": Width narrower than recommended for a level 1 MOSFET.
Instance "m:x1:x4:x9:x1:3": Length shorter than recommended for a level 1 MOSFET.
Instance "m:x1:x4:x9:x1:3": Width narrower than recommended for a level 1 MOSFET.
Instance "m:x1:x4:x9:x1:1": Length shorter than recommended for a level 1 MOSFET.
Instance "m:x1:x4:x9:x1:1": Width narrower than recommended for a level 1 MOSFET.
Instance "m:x1:x4:x9:x1:4": Length shorter than recommended for a level 1 MOSFET.
Instance "m:x1:x4:x9:x1:4": Width narrower than recommended for a level 1 MOSFET.
Instance "m:x1:x4:x9:x2:2": Length shorter than recommended for a level 1 MOSFET.
Instance "m:x1:x4:x9:x2:2": Width narrower than recommended for a level 1 MOSFET.
Instance "m:x1:x4:x9:x2:1": Length shorter than recommended for a level 1 MOSFET.
Instance "m:x1:x4:x9:x2:1": Width narrower than recommended for a level 1 MOSFET.
Instance "m:x1:x4:x11:x1:2": Length shorter than recommended for a level 1 MOSFET.
Instance "m:x1:x4:x11:x1:2": Width narrower than recommended for a level 1 MOSFET.
Instance "m:x1:x4:x11:x1:3": Length shorter than recommended for a level 1 MOSFET.
Instance "m:x1:x4:x11:x1:3": Width narrower than recommended for a level 1 MOSFET.
Instance "m:x1:x4:x11:x1:1": Length shorter than recommended for a level 1 MOSFET.
Instance "m:x1:x4:x11:x1:1": Width narrower than recommended for a level 1 MOSFET.
Instance "m:x1:x4:x11:x1:4": Length shorter than recommended for a level 1 MOSFET.
Instance "m:x1:x4:x11:x1:4": Width narrower than recommended for a level 1 MOSFET.
Instance "m:x1:x4:x11:x2:2": Length shorter than recommended for a level 1 MOSFET.
Instance "m:x1:x4:x11:x2:2": Width narrower than recommended for a level 1 MOSFET.
Instance "m:x1:x4:x11:x2:1": Length shorter than recommended for a level 1 MOSFET.
Instance "m:x1:x4:x11:x2:1": Width narrower than recommended for a level 1 MOSFET.
Instance "m:x1:x4:x12:2": Length shorter than recommended for a level 1 MOSFET.
Instance "m:x1:x4:x12:2": Width narrower than recommended for a level 1 MOSFET.
Instance "m:x1:x4:x12:1": Length shorter than recommended for a level 1 MOSFET.
Instance "m:x1:x4:x12:1": Width narrower than recommended for a level 1 MOSFET.
Instance "m:x1:x4:x13:2": Length shorter than recommended for a level 1 MOSFET.
Instance "m:x1:x4:x13:2": Width narrower than recommended for a level 1 MOSFET.
Instance "m:x1:x4:x13:1": Length shorter than recommended for a level 1 MOSFET.
Instance "m:x1:x4:x13:1": Width narrower than recommended for a level 1 MOSFET.
Instance "m:x1:x4:x17:x2:2": Length shorter than recommended for a level 1 MOSFET.
Instance "m:x1:x4:x17:x2:2": Width narrower than recommended for a level 1 MOSFET.
Instance "m:x1:x4:x17:x2:1": Length shorter than recommended for a level 1 MOSFET.
Instance "m:x1:x4:x17:x2:1": Width narrower than recommended for a level 1 MOSFET.
Instance "m:x1:x4:x17:x1:4": Length shorter than recommended for a level 1 MOSFET.
Instance "m:x1:x4:x17:x1:4": Width narrower than recommended for a level 1 MOSFET.
Instance "m:x1:x4:x17:x1:7": Length shorter than recommended for a level 1 MOSFET.
Instance "m:x1:x4:x17:x1:7": Width narrower than recommended for a level 1 MOSFET.
Instance "m:x1:x4:x17:x1:5": Length shorter than recommended for a level 1 MOSFET.
Instance "m:x1:x4:x17:x1:5": Width narrower than recommended for a level 1 MOSFET.
Instance "m:x1:x4:x17:x1:6": Length shorter than recommended for a level 1 MOSFET.
Instance "m:x1:x4:x17:x1:6": Width narrower than recommended for a level 1 MOSFET.
Instance "m:x1:x4:x18:x3:2": Length shorter than recommended for a level 1 MOSFET.
Instance "m:x1:x4:x18:x3:2": Width narrower than recommended for a level 1 MOSFET.
Instance "m:x1:x4:x18:x3:3": Length shorter than recommended for a level 1 MOSFET.
Instance "m:x1:x4:x18:x3:3": Width narrower than recommended for a level 1 MOSFET.
Instance "m:x1:x4:x18:x3:1": Length shorter than recommended for a level 1 MOSFET.
Instance "m:x1:x4:x18:x3:1": Width narrower than recommended for a level 1 MOSFET.
Instance "m:x1:x4:x18:x3:4": Length shorter than recommended for a level 1 MOSFET.
Instance "m:x1:x4:x18:x3:4": Width narrower than recommended for a level 1 MOSFET.
Instance "m:x1:x4:x18:x1:2": Length shorter than recommended for a level 1 MOSFET.
Instance "m:x1:x4:x18:x1:2": Width narrower than recommended for a level 1 MOSFET.
Instance "m:x1:x4:x18:x1:3": Length shorter than recommended for a level 1 MOSFET.
Instance "m:x1:x4:x18:x1:3": Width narrower than recommended for a level 1 MOSFET.
Instance "m:x1:x4:x18:x1:1": Length shorter than recommended for a level 1 MOSFET.
Instance "m:x1:x4:x18:x1:1": Width narrower than recommended for a level 1 MOSFET.
Instance "m:x1:x4:x18:x1:4": Length shorter than recommended for a level 1 MOSFET.
Instance "m:x1:x4:x18:x1:4": Width narrower than recommended for a level 1 MOSFET.
Instance "m:x1:x4:x18:x2:2": Length shorter than recommended for a level 1 MOSFET.
Instance "m:x1:x4:x18:x2:2": Width narrower than recommended for a level 1 MOSFET.
Instance "m:x1:x4:x18:x2:3": Length shorter than recommended for a level 1 MOSFET.
Instance "m:x1:x4:x18:x2:3": Width narrower than recommended for a level 1 MOSFET.
Instance "m:x1:x4:x18:x2:1": Length shorter than recommended for a level 1 MOSFET.
Instance "m:x1:x4:x18:x2:1": Width narrower than recommended for a level 1 MOSFET.
Instance "m:x1:x4:x18:x2:4": Length shorter than recommended for a level 1 MOSFET.
Instance "m:x1:x4:x18:x2:4": Width narrower than recommended for a level 1 MOSFET.
Instance "m:x1:x4:x18:x4:2": Length shorter than recommended for a level 1 MOSFET.
Instance "m:x1:x4:x18:x4:2": Width narrower than recommended for a level 1 MOSFET.
Instance "m:x1:x4:x18:x4:3": Length shorter than recommended for a level 1 MOSFET.
Instance "m:x1:x4:x18:x4:3": Width narrower than recommended for a level 1 MOSFET.
Instance "m:x1:x4:x18:x4:1": Length shorter than recommended for a level 1 MOSFET.
Instance "m:x1:x4:x18:x4:1": Width narrower than recommended for a level 1 MOSFET.
Instance "m:x1:x4:x18:x4:4": Length shorter than recommended for a level 1 MOSFET.
Instance "m:x1:x4:x18:x4:4": Width narrower than recommended for a level 1 MOSFET.
Instance "m:x1:x4:x19:x1:2": Length shorter than recommended for a level 1 MOSFET.
Instance "m:x1:x4:x19:x1:2": Width narrower than recommended for a level 1 MOSFET.
Instance "m:x1:x4:x19:x1:3": Length shorter than recommended for a level 1 MOSFET.
Instance "m:x1:x4:x19:x1:3": Width narrower than recommended for a level 1 MOSFET.
Instance "m:x1:x4:x19:x1:1": Length shorter than recommended for a level 1 MOSFET.
Instance "m:x1:x4:x19:x1:1": Width narrower than recommended for a level 1 MOSFET.
Instance "m:x1:x4:x19:x1:4": Length shorter than recommended for a level 1 MOSFET.
Instance "m:x1:x4:x19:x1:4": Width narrower than recommended for a level 1 MOSFET.
Instance "m:x1:x4:x19:x2:2": Length shorter than recommended for a level 1 MOSFET.
Instance "m:x1:x4:x19:x2:2": Width narrower than recommended for a level 1 MOSFET.
Instance "m:x1:x4:x19:x2:1": Length shorter than recommended for a level 1 MOSFET.
Instance "m:x1:x4:x19:x2:1": Width narrower than recommended for a level 1 MOSFET.
Instance "m:x1:x4:x20:x1:2": Length shorter than recommended for a level 1 MOSFET.
Instance "m:x1:x4:x20:x1:2": Width narrower than recommended for a level 1 MOSFET.
Instance "m:x1:x4:x20:x1:3": Length shorter than recommended for a level 1 MOSFET.
Instance "m:x1:x4:x20:x1:3": Width narrower than recommended for a level 1 MOSFET.
Instance "m:x1:x4:x20:x1:1": Length shorter than recommended for a level 1 MOSFET.
Instance "m:x1:x4:x20:x1:1": Width narrower than recommended for a level 1 MOSFET.
Instance "m:x1:x4:x20:x1:4": Length shorter than recommended for a level 1 MOSFET.
Instance "m:x1:x4:x20:x1:4": Width narrower than recommended for a level 1 MOSFET.
Instance "m:x1:x4:x20:x2:2": Length shorter than recommended for a level 1 MOSFET.
Instance "m:x1:x4:x20:x2:2": Width narrower than recommended for a level 1 MOSFET.
Instance "m:x1:x4:x20:x2:1": Length shorter than recommended for a level 1 MOSFET.
Instance "m:x1:x4:x20:x2:1": Width narrower than recommended for a level 1 MOSFET.
Instance "m:x1:x4:x21:x1:2": Length shorter than recommended for a level 1 MOSFET.
Instance "m:x1:x4:x21:x1:2": Width narrower than recommended for a level 1 MOSFET.
Instance "m:x1:x4:x21:x1:3": Length shorter than recommended for a level 1 MOSFET.
Instance "m:x1:x4:x21:x1:3": Width narrower than recommended for a level 1 MOSFET.
Instance "m:x1:x4:x21:x1:1": Length shorter than recommended for a level 1 MOSFET.
Instance "m:x1:x4:x21:x1:1": Width narrower than recommended for a level 1 MOSFET.
Instance "m:x1:x4:x21:x1:4": Length shorter than recommended for a level 1 MOSFET.
Instance "m:x1:x4:x21:x1:4": Width narrower than recommended for a level 1 MOSFET.
Instance "m:x1:x4:x21:x2:2": Length shorter than recommended for a level 1 MOSFET.
Instance "m:x1:x4:x21:x2:2": Width narrower than recommended for a level 1 MOSFET.
Instance "m:x1:x4:x21:x2:1": Length shorter than recommended for a level 1 MOSFET.
Instance "m:x1:x4:x21:x2:1": Width narrower than recommended for a level 1 MOSFET.
Instance "m:x1:x4:x22:2": Length shorter than recommended for a level 1 MOSFET.
Instance "m:x1:x4:x22:2": Width narrower than recommended for a level 1 MOSFET.
Instance "m:x1:x4:x22:1": Length shorter than recommended for a level 1 MOSFET.
Instance "m:x1:x4:x22:1": Width narrower than recommended for a level 1 MOSFET.
Instance "m:x1:x4:x23:x2:2": Length shorter than recommended for a level 1 MOSFET.
Instance "m:x1:x4:x23:x2:2": Width narrower than recommended for a level 1 MOSFET.
Instance "m:x1:x4:x23:x2:1": Length shorter than recommended for a level 1 MOSFET.
Instance "m:x1:x4:x23:x2:1": Width narrower than recommended for a level 1 MOSFET.
Instance "m:x1:x4:x23:x1:4": Length shorter than recommended for a level 1 MOSFET.
Instance "m:x1:x4:x23:x1:4": Width narrower than recommended for a level 1 MOSFET.
Instance "m:x1:x4:x23:x1:7": Length shorter than recommended for a level 1 MOSFET.
Instance "m:x1:x4:x23:x1:7": Width narrower than recommended for a level 1 MOSFET.
Instance "m:x1:x4:x23:x1:5": Length shorter than recommended for a level 1 MOSFET.
Instance "m:x1:x4:x23:x1:5": Width narrower than recommended for a level 1 MOSFET.
Instance "m:x1:x4:x23:x1:6": Length shorter than recommended for a level 1 MOSFET.
Instance "m:x1:x4:x23:x1:6": Width narrower than recommended for a level 1 MOSFET.
Instance "m:x1:x4:x24:x1:2": Length shorter than recommended for a level 1 MOSFET.
Instance "m:x1:x4:x24:x1:2": Width narrower than recommended for a level 1 MOSFET.
Instance "m:x1:x4:x24:x1:3": Length shorter than recommended for a level 1 MOSFET.
Instance "m:x1:x4:x24:x1:3": Width narrower than recommended for a level 1 MOSFET.
Instance "m:x1:x4:x24:x1:1": Length shorter than recommended for a level 1 MOSFET.
Instance "m:x1:x4:x24:x1:1": Width narrower than recommended for a level 1 MOSFET.
Instance "m:x1:x4:x24:x1:4": Length shorter than recommended for a level 1 MOSFET.
Instance "m:x1:x4:x24:x1:4": Width narrower than recommended for a level 1 MOSFET.
Instance "m:x1:x4:x24:x2:2": Length shorter than recommended for a level 1 MOSFET.
Instance "m:x1:x4:x24:x2:2": Width narrower than recommended for a level 1 MOSFET.
Instance "m:x1:x4:x24:x2:1": Length shorter than recommended for a level 1 MOSFET.
Instance "m:x1:x4:x24:x2:1": Width narrower than recommended for a level 1 MOSFET.
Instance "m:x1:x4:x25:x2:2": Length shorter than recommended for a level 1 MOSFET.
Instance "m:x1:x4:x25:x2:2": Width narrower than recommended for a level 1 MOSFET.
Instance "m:x1:x4:x25:x2:1": Length shorter than recommended for a level 1 MOSFET.
Instance "m:x1:x4:x25:x2:1": Width narrower than recommended for a level 1 MOSFET.
Instance "m:x1:x4:x25:x1:4": Length shorter than recommended for a level 1 MOSFET.
Instance "m:x1:x4:x25:x1:4": Width narrower than recommended for a level 1 MOSFET.
Instance "m:x1:x4:x25:x1:7": Length shorter than recommended for a level 1 MOSFET.
Instance "m:x1:x4:x25:x1:7": Width narrower than recommended for a level 1 MOSFET.
Instance "m:x1:x4:x25:x1:5": Length shorter than recommended for a level 1 MOSFET.
Instance "m:x1:x4:x25:x1:5": Width narrower than recommended for a level 1 MOSFET.
Instance "m:x1:x4:x25:x1:6": Length shorter than recommended for a level 1 MOSFET.
Instance "m:x1:x4:x25:x1:6": Width narrower than recommended for a level 1 MOSFET.
Instance "m:x1:x4:x26:2": Length shorter than recommended for a level 1 MOSFET.
Instance "m:x1:x4:x26:2": Width narrower than recommended for a level 1 MOSFET.
Instance "m:x1:x4:x26:1": Length shorter than recommended for a level 1 MOSFET.
Instance "m:x1:x4:x26:1": Width narrower than recommended for a level 1 MOSFET.
Instance "m:x1:x4:x10:x1:2": Length shorter than recommended for a level 1 MOSFET.
Instance "m:x1:x4:x10:x1:2": Width narrower than recommended for a level 1 MOSFET.
Instance "m:x1:x4:x10:x1:3": Length shorter than recommended for a level 1 MOSFET.
Instance "m:x1:x4:x10:x1:3": Width narrower than recommended for a level 1 MOSFET.
Instance "m:x1:x4:x10:x1:1": Length shorter than recommended for a level 1 MOSFET.
Instance "m:x1:x4:x10:x1:1": Width narrower than recommended for a level 1 MOSFET.
Instance "m:x1:x4:x10:x1:4": Length shorter than recommended for a level 1 MOSFET.
Instance "m:x1:x4:x10:x1:4": Width narrower than recommended for a level 1 MOSFET.
Instance "m:x1:x4:x10:x2:2": Length shorter than recommended for a level 1 MOSFET.
Instance "m:x1:x4:x10:x2:2": Width narrower than recommended for a level 1 MOSFET.
Instance "m:x1:x4:x10:x2:1": Length shorter than recommended for a level 1 MOSFET.
Instance "m:x1:x4:x10:x2:1": Width narrower than recommended for a level 1 MOSFET.
Instance "m:x1:x4:x14:2": Length shorter than recommended for a level 1 MOSFET.
Instance "m:x1:x4:x14:2": Width narrower than recommended for a level 1 MOSFET.
Instance "m:x1:x4:x14:1": Length shorter than recommended for a level 1 MOSFET.
Instance "m:x1:x4:x14:1": Width narrower than recommended for a level 1 MOSFET.
Instance "m:x1:x4:x15:x1:2": Length shorter than recommended for a level 1 MOSFET.
Instance "m:x1:x4:x15:x1:2": Width narrower than recommended for a level 1 MOSFET.
Instance "m:x1:x4:x15:x1:3": Length shorter than recommended for a level 1 MOSFET.
Instance "m:x1:x4:x15:x1:3": Width narrower than recommended for a level 1 MOSFET.
Instance "m:x1:x4:x15:x1:1": Length shorter than recommended for a level 1 MOSFET.
Instance "m:x1:x4:x15:x1:1": Width narrower than recommended for a level 1 MOSFET.
Instance "m:x1:x4:x15:x1:4": Length shorter than recommended for a level 1 MOSFET.
Instance "m:x1:x4:x15:x1:4": Width narrower than recommended for a level 1 MOSFET.
Instance "m:x1:x4:x15:x2:2": Length shorter than recommended for a level 1 MOSFET.
Instance "m:x1:x4:x15:x2:2": Width narrower than recommended for a level 1 MOSFET.
Instance "m:x1:x4:x15:x2:1": Length shorter than recommended for a level 1 MOSFET.
Instance "m:x1:x4:x15:x2:1": Width narrower than recommended for a level 1 MOSFET.
Instance "m:x1:x4:x16:2": Length shorter than recommended for a level 1 MOSFET.
Instance "m:x1:x4:x16:2": Width narrower than recommended for a level 1 MOSFET.
Instance "m:x1:x4:x16:1": Length shorter than recommended for a level 1 MOSFET.
Instance "m:x1:x4:x16:1": Width narrower than recommended for a level 1 MOSFET.
Instance "m:x1:x4:x27:x1:2": Length shorter than recommended for a level 1 MOSFET.
Instance "m:x1:x4:x27:x1:2": Width narrower than recommended for a level 1 MOSFET.
Instance "m:x1:x4:x27:x1:3": Length shorter than recommended for a level 1 MOSFET.
Instance "m:x1:x4:x27:x1:3": Width narrower than recommended for a level 1 MOSFET.
Instance "m:x1:x4:x27:x1:1": Length shorter than recommended for a level 1 MOSFET.
Instance "m:x1:x4:x27:x1:1": Width narrower than recommended for a level 1 MOSFET.
Instance "m:x1:x4:x27:x1:4": Length shorter than recommended for a level 1 MOSFET.
Instance "m:x1:x4:x27:x1:4": Width narrower than recommended for a level 1 MOSFET.
Instance "m:x1:x4:x27:x2:2": Length shorter than recommended for a level 1 MOSFET.
Instance "m:x1:x4:x27:x2:2": Width narrower than recommended for a level 1 MOSFET.
Instance "m:x1:x4:x27:x2:1": Length shorter than recommended for a level 1 MOSFET.
Instance "m:x1:x4:x27:x2:1": Width narrower than recommended for a level 1 MOSFET.
Instance "m:x1:x4:x28:x2:2": Length shorter than recommended for a level 1 MOSFET.
Instance "m:x1:x4:x28:x2:2": Width narrower than recommended for a level 1 MOSFET.
Instance "m:x1:x4:x28:x2:1": Length shorter than recommended for a level 1 MOSFET.
Instance "m:x1:x4:x28:x2:1": Width narrower than recommended for a level 1 MOSFET.
Instance "m:x1:x4:x28:x1:4": Length shorter than recommended for a level 1 MOSFET.
Instance "m:x1:x4:x28:x1:4": Width narrower than recommended for a level 1 MOSFET.
Instance "m:x1:x4:x28:x1:7": Length shorter than recommended for a level 1 MOSFET.
Instance "m:x1:x4:x28:x1:7": Width narrower than recommended for a level 1 MOSFET.
Instance "m:x1:x4:x28:x1:5": Length shorter than recommended for a level 1 MOSFET.
Instance "m:x1:x4:x28:x1:5": Width narrower than recommended for a level 1 MOSFET.
Instance "m:x1:x4:x28:x1:6": Length shorter than recommended for a level 1 MOSFET.
Instance "m:x1:x4:x28:x1:6": Width narrower than recommended for a level 1 MOSFET.
Instance "m:x1:x4:x29:2": Length shorter than recommended for a level 1 MOSFET.
Instance "m:x1:x4:x29:2": Width narrower than recommended for a level 1 MOSFET.
Instance "m:x1:x4:x29:1": Length shorter than recommended for a level 1 MOSFET.
Instance "m:x1:x4:x29:1": Width narrower than recommended for a level 1 MOSFET.
Early termination of direct N-R iteration.
Direct Newton iteration failed to find .op point.  (Use ".option noopiter" to skip.)
Starting Gmin stepping
Gmin = 10
Gmin = 1.07374
Gmin = 0.115292
Gmin = 0.0123794
Gmin = 0.00132923
Gmin = 0.000142725
Gmin = 1.5325e-05
Gmin = 1.6455e-06
Gmin = 1.76685e-07
Gmin = 1.89714e-08
Gmin = 2.03704e-09
Gmin = 2.18725e-10
Gmin = 2.34854e-11
Gmin = 2.52173e-12
Gmin = 2.70769e-13
Gmin = 0
Gmin stepping succeeded in finding the operating point.


Date: Wed Nov 29 18:16:04 2023
Total elapsed time: 1.054 seconds.

tnom = 27
temp = 27
method = modified trap
totiter = 2546
traniter = 2082
tranpoints = 1042
accept = 1042
rejected = 0
matrix size = 1223
fillins = 660
solver = Normal
Avg thread counts: 7.5/5.0/5.0/2.9
Matrix Compiler1: 195.83 KB object code size  52.7/23.1/[11.2]
Matrix Compiler2: 162.84 KB object code size  30.0/18.2/[14.9]

