Circuit: * C:\Users\kuria\OneDrive - iiit-b\Courses-IIITB-General\Course-DigitalDesign\Moodle-Questions\Midterm-Lab-Exam\work_folder\testbench-xnor.asc

WARNING: Node X1:X3:N001 is floating.
WARNING: Node X1:X3:N002 is floating.
WARNING: Node X1:X3:N004 is floating.
WARNING: Node X1:X1:N001 is floating.
WARNING: Node X1:X1:N002 is floating.
WARNING: Node X1:X1:N004 is floating.
WARNING: Node X1:X2:N001 is floating.
WARNING: Node X1:X2:N002 is floating.
WARNING: Node X1:X2:N004 is floating.
WARNING: Node X1:X4:N001 is floating.
WARNING: Node X1:X4:N002 is floating.
WARNING: Node X1:X4:N004 is floating.
WARNING: Node X1:X5:N001 is floating.
WARNING: Node X1:X5:N002 is floating.

Instance "m:x1:x3:2": Length shorter than recommended for a level 1 MOSFET.
Instance "m:x1:x3:2": Width narrower than recommended for a level 1 MOSFET.
Instance "m:x1:x3:3": Length shorter than recommended for a level 1 MOSFET.
Instance "m:x1:x3:3": Width narrower than recommended for a level 1 MOSFET.
Instance "m:x1:x3:1": Length shorter than recommended for a level 1 MOSFET.
Instance "m:x1:x3:1": Width narrower than recommended for a level 1 MOSFET.
Instance "m:x1:x3:4": Length shorter than recommended for a level 1 MOSFET.
Instance "m:x1:x3:4": Width narrower than recommended for a level 1 MOSFET.
Instance "m:x1:x1:2": Length shorter than recommended for a level 1 MOSFET.
Instance "m:x1:x1:2": Width narrower than recommended for a level 1 MOSFET.
Instance "m:x1:x1:3": Length shorter than recommended for a level 1 MOSFET.
Instance "m:x1:x1:3": Width narrower than recommended for a level 1 MOSFET.
Instance "m:x1:x1:1": Length shorter than recommended for a level 1 MOSFET.
Instance "m:x1:x1:1": Width narrower than recommended for a level 1 MOSFET.
Instance "m:x1:x1:4": Length shorter than recommended for a level 1 MOSFET.
Instance "m:x1:x1:4": Width narrower than recommended for a level 1 MOSFET.
Instance "m:x1:x2:2": Length shorter than recommended for a level 1 MOSFET.
Instance "m:x1:x2:2": Width narrower than recommended for a level 1 MOSFET.
Instance "m:x1:x2:3": Length shorter than recommended for a level 1 MOSFET.
Instance "m:x1:x2:3": Width narrower than recommended for a level 1 MOSFET.
Instance "m:x1:x2:1": Length shorter than recommended for a level 1 MOSFET.
Instance "m:x1:x2:1": Width narrower than recommended for a level 1 MOSFET.
Instance "m:x1:x2:4": Length shorter than recommended for a level 1 MOSFET.
Instance "m:x1:x2:4": Width narrower than recommended for a level 1 MOSFET.
Instance "m:x1:x4:2": Length shorter than recommended for a level 1 MOSFET.
Instance "m:x1:x4:2": Width narrower than recommended for a level 1 MOSFET.
Instance "m:x1:x4:3": Length shorter than recommended for a level 1 MOSFET.
Instance "m:x1:x4:3": Width narrower than recommended for a level 1 MOSFET.
Instance "m:x1:x4:1": Length shorter than recommended for a level 1 MOSFET.
Instance "m:x1:x4:1": Width narrower than recommended for a level 1 MOSFET.
Instance "m:x1:x4:4": Length shorter than recommended for a level 1 MOSFET.
Instance "m:x1:x4:4": Width narrower than recommended for a level 1 MOSFET.
Instance "m:x1:x5:2": Length shorter than recommended for a level 1 MOSFET.
Instance "m:x1:x5:2": Width narrower than recommended for a level 1 MOSFET.
Instance "m:x1:x5:1": Length shorter than recommended for a level 1 MOSFET.
Instance "m:x1:x5:1": Width narrower than recommended for a level 1 MOSFET.
Direct Newton iteration failed to find .op point.  (Use ".option noopiter" to skip.)
Starting Gmin stepping
Gmin = 10
Gmin = 1.07374
Gmin = 0.115292
Gmin = 0.0123794
Gmin = 0.00132923
Gmin = 0.000142725
Gmin = 1.5325e-05
Gmin = 1.6455e-06
Gmin = 1.76685e-07
Gmin = 1.89714e-08
Gmin = 2.03704e-09
Gmin = 2.18725e-10
Gmin = 2.34854e-11
Gmin = 2.52173e-12
Gmin = 2.70769e-13
Gmin = 0
Gmin stepping succeeded in finding the operating point.


Date: Mon Sep 18 14:24:52 2023
Total elapsed time: 0.076 seconds.

tnom = 27
temp = 27
method = modified trap
totiter = 2499
traniter = 2082
tranpoints = 1042
accept = 1042
rejected = 0
matrix size = 29
fillins = 2
solver = Normal
Avg thread counts: 1.5/1.9/1.9/1.5
Matrix Compiler1: 2.91 KB object code size  0.5/0.2/[0.2]
Matrix Compiler2:     251 opcodes  0.3/[0.2]/0.3

